
---------- Begin Simulation Statistics ----------
final_tick                               513831475500                       # Number of ticks from beginning of simulation (restored from checkpoints and never reset)
host_inst_rate                                 137196                       # Simulator instruction rate (inst/s)
host_mem_usage                                 672012                       # Number of bytes of host memory used
host_op_rate                                   252740                       # Simulator op (including micro ops) rate (op/s)
host_seconds                                   728.89                       # Real time elapsed on the host
host_tick_rate                              704955057                       # Simulator tick rate (ticks/s)
sim_freq                                 1000000000000                       # Frequency of simulated ticks
sim_insts                                   100000001                       # Number of instructions simulated
sim_ops                                     184218798                       # Number of ops (including micro ops) simulated
sim_seconds                                  0.513831                       # Number of seconds simulated
sim_ticks                                513831475500                       # Number of ticks simulated
system.cpu.committedInsts                   100000001                       # Number of instructions committed
system.cpu.committedOps                     184218798                       # Number of ops (including micro ops) committed
system.cpu.cpi                              10.276629                       # CPI: cycles per instruction
system.cpu.discardedOps                          4330                       # Number of ops (including micro ops) which were discarded before commit
system.cpu.idleCycles                       805974741                       # Total number of cycles that the object has spent stopped
system.cpu.ipc                               0.097308                       # IPC: instructions per cycle
system.cpu.numCycles                       1027662951                       # number of cpu cycles simulated
system.cpu.numFetchSuspends                         0                       # Number of times Execute suspended instruction fetching
system.cpu.numWorkItemsCompleted                    0                       # number of work items this cpu completed
system.cpu.numWorkItemsStarted                      0                       # number of work items this cpu started
system.cpu.op_class_0::No_OpClass                   0      0.00%      0.00% # Class of committed instruction
system.cpu.op_class_0::IntAlu                97640478     53.00%     53.00% # Class of committed instruction
system.cpu.op_class_0::IntMult                 114699      0.06%     53.06% # Class of committed instruction
system.cpu.op_class_0::IntDiv                       0      0.00%     53.06% # Class of committed instruction
system.cpu.op_class_0::FloatAdd                     0      0.00%     53.06% # Class of committed instruction
system.cpu.op_class_0::FloatCmp                     0      0.00%     53.06% # Class of committed instruction
system.cpu.op_class_0::FloatCvt                     0      0.00%     53.06% # Class of committed instruction
system.cpu.op_class_0::FloatMult                    0      0.00%     53.06% # Class of committed instruction
system.cpu.op_class_0::FloatMultAcc                 0      0.00%     53.06% # Class of committed instruction
system.cpu.op_class_0::FloatDiv                     0      0.00%     53.06% # Class of committed instruction
system.cpu.op_class_0::FloatMisc                    0      0.00%     53.06% # Class of committed instruction
system.cpu.op_class_0::FloatSqrt                    0      0.00%     53.06% # Class of committed instruction
system.cpu.op_class_0::SimdAdd                      8      0.00%     53.06% # Class of committed instruction
system.cpu.op_class_0::SimdAddAcc                   0      0.00%     53.06% # Class of committed instruction
system.cpu.op_class_0::SimdAlu                      8      0.00%     53.06% # Class of committed instruction
system.cpu.op_class_0::SimdCmp                      6      0.00%     53.06% # Class of committed instruction
system.cpu.op_class_0::SimdCvt                      0      0.00%     53.06% # Class of committed instruction
system.cpu.op_class_0::SimdMisc                     1      0.00%     53.06% # Class of committed instruction
system.cpu.op_class_0::SimdMult                     0      0.00%     53.06% # Class of committed instruction
system.cpu.op_class_0::SimdMultAcc                  0      0.00%     53.06% # Class of committed instruction
system.cpu.op_class_0::SimdShift                    0      0.00%     53.06% # Class of committed instruction
system.cpu.op_class_0::SimdShiftAcc                 0      0.00%     53.06% # Class of committed instruction
system.cpu.op_class_0::SimdDiv                      0      0.00%     53.06% # Class of committed instruction
system.cpu.op_class_0::SimdSqrt                     0      0.00%     53.06% # Class of committed instruction
system.cpu.op_class_0::SimdFloatAdd                 0      0.00%     53.06% # Class of committed instruction
system.cpu.op_class_0::SimdFloatAlu                 0      0.00%     53.06% # Class of committed instruction
system.cpu.op_class_0::SimdFloatCmp                 0      0.00%     53.06% # Class of committed instruction
system.cpu.op_class_0::SimdFloatCvt                 0      0.00%     53.06% # Class of committed instruction
system.cpu.op_class_0::SimdFloatDiv                 0      0.00%     53.06% # Class of committed instruction
system.cpu.op_class_0::SimdFloatMisc               23      0.00%     53.06% # Class of committed instruction
system.cpu.op_class_0::SimdFloatMult                0      0.00%     53.06% # Class of committed instruction
system.cpu.op_class_0::SimdFloatMultAcc             0      0.00%     53.06% # Class of committed instruction
system.cpu.op_class_0::SimdFloatSqrt                0      0.00%     53.06% # Class of committed instruction
system.cpu.op_class_0::SimdReduceAdd                0      0.00%     53.06% # Class of committed instruction
system.cpu.op_class_0::SimdReduceAlu                0      0.00%     53.06% # Class of committed instruction
system.cpu.op_class_0::SimdReduceCmp                0      0.00%     53.06% # Class of committed instruction
system.cpu.op_class_0::SimdFloatReduceAdd            0      0.00%     53.06% # Class of committed instruction
system.cpu.op_class_0::SimdFloatReduceCmp            0      0.00%     53.06% # Class of committed instruction
system.cpu.op_class_0::SimdAes                      0      0.00%     53.06% # Class of committed instruction
system.cpu.op_class_0::SimdAesMix                   0      0.00%     53.06% # Class of committed instruction
system.cpu.op_class_0::SimdSha1Hash                 0      0.00%     53.06% # Class of committed instruction
system.cpu.op_class_0::SimdSha1Hash2                0      0.00%     53.06% # Class of committed instruction
system.cpu.op_class_0::SimdSha256Hash               0      0.00%     53.06% # Class of committed instruction
system.cpu.op_class_0::SimdSha256Hash2              0      0.00%     53.06% # Class of committed instruction
system.cpu.op_class_0::SimdShaSigma2                0      0.00%     53.06% # Class of committed instruction
system.cpu.op_class_0::SimdShaSigma3                0      0.00%     53.06% # Class of committed instruction
system.cpu.op_class_0::SimdPredAlu                  0      0.00%     53.06% # Class of committed instruction
system.cpu.op_class_0::MemRead                2082677      1.13%     54.20% # Class of committed instruction
system.cpu.op_class_0::MemWrite              84380898     45.80%    100.00% # Class of committed instruction
system.cpu.op_class_0::FloatMemRead                 0      0.00%    100.00% # Class of committed instruction
system.cpu.op_class_0::FloatMemWrite                0      0.00%    100.00% # Class of committed instruction
system.cpu.op_class_0::IprAccess                    0      0.00%    100.00% # Class of committed instruction
system.cpu.op_class_0::InstPrefetch                 0      0.00%    100.00% # Class of committed instruction
system.cpu.op_class_0::total                184218798                       # Class of committed instruction
system.cpu.tickCycles                       221688210                       # Number of cycles that the object actually ticked
system.cpu.workload.numSyscalls                    18                       # Number of system calls
system.membus.snoop_filter.hit_multi_requests            0                       # Number of requests hitting in the snoop filter with multiple (>1) holders of the requested data.
system.membus.snoop_filter.hit_multi_snoops            0                       # Number of snoops hitting in the snoop filter with multiple (>1) holders of the requested data.
system.membus.snoop_filter.hit_single_requests      5230516                       # Number of requests hitting in the snoop filter with a single holder of the requested data.
system.membus.snoop_filter.hit_single_snoops            0                       # Number of snoops hitting in the snoop filter with a single holder of the requested data.
system.membus.snoop_filter.tot_requests      10494397                       # Total number of requests made to the snoop filter.
system.membus.snoop_filter.tot_snoops               0                       # Total number of snoops made to the snoop filter.
system.tol2bus.snoop_filter.hit_multi_requests           61                       # Number of requests hitting in the snoop filter with multiple (>1) holders of the requested data.
system.tol2bus.snoop_filter.hit_multi_snoops            0                       # Number of snoops hitting in the snoop filter with multiple (>1) holders of the requested data.
system.tol2bus.snoop_filter.hit_single_requests      5262347                       # Number of requests hitting in the snoop filter with a single holder of the requested data.
system.tol2bus.snoop_filter.hit_single_snoops          623                       # Number of snoops hitting in the snoop filter with a single holder of the requested data.
system.tol2bus.snoop_filter.tot_requests     10526328                       # Total number of requests made to the snoop filter.
system.tol2bus.snoop_filter.tot_snoops            623                       # Total number of snoops made to the snoop filter.
system.clk_domain.clock                          1000                       # Clock period in ticks
system.cpu.branchPred.lookups                10658146                       # Number of BP lookups
system.cpu.branchPred.condPredicted          10649941                       # Number of conditional branches predicted
system.cpu.branchPred.condIncorrect              1443                       # Number of conditional branches incorrect
system.cpu.branchPred.BTBLookups             10650188                       # Number of BTB lookups
system.cpu.branchPred.BTBHits                10648847                       # Number of BTB hits
system.cpu.branchPred.BTBHitPct             99.987409                       # BTB Hit Percentage
system.cpu.branchPred.RASUsed                    2713                       # Number of times the RAS was used to get a target.
system.cpu.branchPred.RASIncorrect                  1                       # Number of incorrect RAS predictions.
system.cpu.branchPred.indirectLookups             193                       # Number of indirect predictor lookups.
system.cpu.branchPred.indirectHits                 24                       # Number of indirect target hits.
system.cpu.branchPred.indirectMisses              169                       # Number of indirect misses.
system.cpu.branchPred.indirectMispredicted          103                       # Number of mispredicted indirect branches.
system.cpu.dcache.demand_hits::.cpu.data     75856936                       # number of demand (read+write) hits
system.cpu.dcache.demand_hits::total         75856936                       # number of demand (read+write) hits
system.cpu.dcache.overall_hits::.cpu.data     75856968                       # number of overall hits
system.cpu.dcache.overall_hits::total        75856968                       # number of overall hits
system.cpu.dcache.demand_misses::.cpu.data     10523790                       # number of demand (read+write) misses
system.cpu.dcache.demand_misses::total       10523790                       # number of demand (read+write) misses
system.cpu.dcache.overall_misses::.cpu.data     10523829                       # number of overall misses
system.cpu.dcache.overall_misses::total      10523829                       # number of overall misses
system.cpu.dcache.demand_miss_latency::.cpu.data 876764163999                       # number of demand (read+write) miss cycles
system.cpu.dcache.demand_miss_latency::total 876764163999                       # number of demand (read+write) miss cycles
system.cpu.dcache.overall_miss_latency::.cpu.data 876764163999                       # number of overall miss cycles
system.cpu.dcache.overall_miss_latency::total 876764163999                       # number of overall miss cycles
system.cpu.dcache.demand_accesses::.cpu.data     86380726                       # number of demand (read+write) accesses
system.cpu.dcache.demand_accesses::total     86380726                       # number of demand (read+write) accesses
system.cpu.dcache.overall_accesses::.cpu.data     86380797                       # number of overall (read+write) accesses
system.cpu.dcache.overall_accesses::total     86380797                       # number of overall (read+write) accesses
system.cpu.dcache.demand_miss_rate::.cpu.data     0.121830                       # miss rate for demand accesses
system.cpu.dcache.demand_miss_rate::total     0.121830                       # miss rate for demand accesses
system.cpu.dcache.overall_miss_rate::.cpu.data     0.121831                       # miss rate for overall accesses
system.cpu.dcache.overall_miss_rate::total     0.121831                       # miss rate for overall accesses
system.cpu.dcache.demand_avg_miss_latency::.cpu.data 83312.586435                       # average overall miss latency
system.cpu.dcache.demand_avg_miss_latency::total 83312.586435                       # average overall miss latency
system.cpu.dcache.overall_avg_miss_latency::.cpu.data 83312.277689                       # average overall miss latency
system.cpu.dcache.overall_avg_miss_latency::total 83312.277689                       # average overall miss latency
system.cpu.dcache.blocked_cycles::no_mshrs          333                       # number of cycles access was blocked
system.cpu.dcache.blocked_cycles::no_targets            0                       # number of cycles access was blocked
system.cpu.dcache.blocked::no_mshrs                 5                       # number of cycles access was blocked
system.cpu.dcache.blocked::no_targets               0                       # number of cycles access was blocked
system.cpu.dcache.avg_blocked_cycles::no_mshrs    66.600000                       # average number of cycles each access was blocked
system.cpu.dcache.avg_blocked_cycles::no_targets          nan                       # average number of cycles each access was blocked
system.cpu.dcache.writebacks::.writebacks      5262053                       # number of writebacks
system.cpu.dcache.writebacks::total           5262053                       # number of writebacks
system.cpu.dcache.demand_mshr_hits::.cpu.data      5260452                       # number of demand (read+write) MSHR hits
system.cpu.dcache.demand_mshr_hits::total      5260452                       # number of demand (read+write) MSHR hits
system.cpu.dcache.overall_mshr_hits::.cpu.data      5260452                       # number of overall MSHR hits
system.cpu.dcache.overall_mshr_hits::total      5260452                       # number of overall MSHR hits
system.cpu.dcache.demand_mshr_misses::.cpu.data      5263338                       # number of demand (read+write) MSHR misses
system.cpu.dcache.demand_mshr_misses::total      5263338                       # number of demand (read+write) MSHR misses
system.cpu.dcache.overall_mshr_misses::.cpu.data      5263371                       # number of overall MSHR misses
system.cpu.dcache.overall_mshr_misses::total      5263371                       # number of overall MSHR misses
system.cpu.dcache.demand_mshr_miss_latency::.cpu.data 431929025000                       # number of demand (read+write) MSHR miss cycles
system.cpu.dcache.demand_mshr_miss_latency::total 431929025000                       # number of demand (read+write) MSHR miss cycles
system.cpu.dcache.overall_mshr_miss_latency::.cpu.data 431931577500                       # number of overall MSHR miss cycles
system.cpu.dcache.overall_mshr_miss_latency::total 431931577500                       # number of overall MSHR miss cycles
system.cpu.dcache.demand_mshr_miss_rate::.cpu.data     0.060932                       # mshr miss rate for demand accesses
system.cpu.dcache.demand_mshr_miss_rate::total     0.060932                       # mshr miss rate for demand accesses
system.cpu.dcache.overall_mshr_miss_rate::.cpu.data     0.060932                       # mshr miss rate for overall accesses
system.cpu.dcache.overall_mshr_miss_rate::total     0.060932                       # mshr miss rate for overall accesses
system.cpu.dcache.demand_avg_mshr_miss_latency::.cpu.data 82063.706530                       # average overall mshr miss latency
system.cpu.dcache.demand_avg_mshr_miss_latency::total 82063.706530                       # average overall mshr miss latency
system.cpu.dcache.overall_avg_mshr_miss_latency::.cpu.data 82063.676967                       # average overall mshr miss latency
system.cpu.dcache.overall_avg_mshr_miss_latency::total 82063.676967                       # average overall mshr miss latency
system.cpu.dcache.replacements                5262347                       # number of replacements
system.cpu.dcache.ReadReq_hits::.cpu.data      2043794                       # number of ReadReq hits
system.cpu.dcache.ReadReq_hits::total         2043794                       # number of ReadReq hits
system.cpu.dcache.ReadReq_misses::.cpu.data          320                       # number of ReadReq misses
system.cpu.dcache.ReadReq_misses::total           320                       # number of ReadReq misses
system.cpu.dcache.ReadReq_miss_latency::.cpu.data     25535500                       # number of ReadReq miss cycles
system.cpu.dcache.ReadReq_miss_latency::total     25535500                       # number of ReadReq miss cycles
system.cpu.dcache.ReadReq_accesses::.cpu.data      2044114                       # number of ReadReq accesses(hits+misses)
system.cpu.dcache.ReadReq_accesses::total      2044114                       # number of ReadReq accesses(hits+misses)
system.cpu.dcache.ReadReq_miss_rate::.cpu.data     0.000157                       # miss rate for ReadReq accesses
system.cpu.dcache.ReadReq_miss_rate::total     0.000157                       # miss rate for ReadReq accesses
system.cpu.dcache.ReadReq_avg_miss_latency::.cpu.data 79798.437500                       # average ReadReq miss latency
system.cpu.dcache.ReadReq_avg_miss_latency::total 79798.437500                       # average ReadReq miss latency
system.cpu.dcache.ReadReq_mshr_hits::.cpu.data           20                       # number of ReadReq MSHR hits
system.cpu.dcache.ReadReq_mshr_hits::total           20                       # number of ReadReq MSHR hits
system.cpu.dcache.ReadReq_mshr_misses::.cpu.data          300                       # number of ReadReq MSHR misses
system.cpu.dcache.ReadReq_mshr_misses::total          300                       # number of ReadReq MSHR misses
system.cpu.dcache.ReadReq_mshr_miss_latency::.cpu.data     23806000                       # number of ReadReq MSHR miss cycles
system.cpu.dcache.ReadReq_mshr_miss_latency::total     23806000                       # number of ReadReq MSHR miss cycles
system.cpu.dcache.ReadReq_mshr_miss_rate::.cpu.data     0.000147                       # mshr miss rate for ReadReq accesses
system.cpu.dcache.ReadReq_mshr_miss_rate::total     0.000147                       # mshr miss rate for ReadReq accesses
system.cpu.dcache.ReadReq_avg_mshr_miss_latency::.cpu.data 79353.333333                       # average ReadReq mshr miss latency
system.cpu.dcache.ReadReq_avg_mshr_miss_latency::total 79353.333333                       # average ReadReq mshr miss latency
system.cpu.dcache.WriteReq_hits::.cpu.data     73813142                       # number of WriteReq hits
system.cpu.dcache.WriteReq_hits::total       73813142                       # number of WriteReq hits
system.cpu.dcache.WriteReq_misses::.cpu.data     10523470                       # number of WriteReq misses
system.cpu.dcache.WriteReq_misses::total     10523470                       # number of WriteReq misses
system.cpu.dcache.WriteReq_miss_latency::.cpu.data 876738628499                       # number of WriteReq miss cycles
system.cpu.dcache.WriteReq_miss_latency::total 876738628499                       # number of WriteReq miss cycles
system.cpu.dcache.WriteReq_accesses::.cpu.data     84336612                       # number of WriteReq accesses(hits+misses)
system.cpu.dcache.WriteReq_accesses::total     84336612                       # number of WriteReq accesses(hits+misses)
system.cpu.dcache.WriteReq_miss_rate::.cpu.data     0.124779                       # miss rate for WriteReq accesses
system.cpu.dcache.WriteReq_miss_rate::total     0.124779                       # miss rate for WriteReq accesses
system.cpu.dcache.WriteReq_avg_miss_latency::.cpu.data 83312.693294                       # average WriteReq miss latency
system.cpu.dcache.WriteReq_avg_miss_latency::total 83312.693294                       # average WriteReq miss latency
system.cpu.dcache.WriteReq_mshr_hits::.cpu.data      5260432                       # number of WriteReq MSHR hits
system.cpu.dcache.WriteReq_mshr_hits::total      5260432                       # number of WriteReq MSHR hits
system.cpu.dcache.WriteReq_mshr_misses::.cpu.data      5263038                       # number of WriteReq MSHR misses
system.cpu.dcache.WriteReq_mshr_misses::total      5263038                       # number of WriteReq MSHR misses
system.cpu.dcache.WriteReq_mshr_miss_latency::.cpu.data 431905219000                       # number of WriteReq MSHR miss cycles
system.cpu.dcache.WriteReq_mshr_miss_latency::total 431905219000                       # number of WriteReq MSHR miss cycles
system.cpu.dcache.WriteReq_mshr_miss_rate::.cpu.data     0.062405                       # mshr miss rate for WriteReq accesses
system.cpu.dcache.WriteReq_mshr_miss_rate::total     0.062405                       # mshr miss rate for WriteReq accesses
system.cpu.dcache.WriteReq_avg_mshr_miss_latency::.cpu.data 82063.861025                       # average WriteReq mshr miss latency
system.cpu.dcache.WriteReq_avg_mshr_miss_latency::total 82063.861025                       # average WriteReq mshr miss latency
system.cpu.dcache.SoftPFReq_hits::.cpu.data           32                       # number of SoftPFReq hits
system.cpu.dcache.SoftPFReq_hits::total            32                       # number of SoftPFReq hits
system.cpu.dcache.SoftPFReq_misses::.cpu.data           39                       # number of SoftPFReq misses
system.cpu.dcache.SoftPFReq_misses::total           39                       # number of SoftPFReq misses
system.cpu.dcache.SoftPFReq_accesses::.cpu.data           71                       # number of SoftPFReq accesses(hits+misses)
system.cpu.dcache.SoftPFReq_accesses::total           71                       # number of SoftPFReq accesses(hits+misses)
system.cpu.dcache.SoftPFReq_miss_rate::.cpu.data     0.549296                       # miss rate for SoftPFReq accesses
system.cpu.dcache.SoftPFReq_miss_rate::total     0.549296                       # miss rate for SoftPFReq accesses
system.cpu.dcache.SoftPFReq_mshr_misses::.cpu.data           33                       # number of SoftPFReq MSHR misses
system.cpu.dcache.SoftPFReq_mshr_misses::total           33                       # number of SoftPFReq MSHR misses
system.cpu.dcache.SoftPFReq_mshr_miss_latency::.cpu.data      2552500                       # number of SoftPFReq MSHR miss cycles
system.cpu.dcache.SoftPFReq_mshr_miss_latency::total      2552500                       # number of SoftPFReq MSHR miss cycles
system.cpu.dcache.SoftPFReq_mshr_miss_rate::.cpu.data     0.464789                       # mshr miss rate for SoftPFReq accesses
system.cpu.dcache.SoftPFReq_mshr_miss_rate::total     0.464789                       # mshr miss rate for SoftPFReq accesses
system.cpu.dcache.SoftPFReq_avg_mshr_miss_latency::.cpu.data 77348.484848                       # average SoftPFReq mshr miss latency
system.cpu.dcache.SoftPFReq_avg_mshr_miss_latency::total 77348.484848                       # average SoftPFReq mshr miss latency
system.cpu.dcache.LoadLockedReq_hits::.cpu.data           34                       # number of LoadLockedReq hits
system.cpu.dcache.LoadLockedReq_hits::total           34                       # number of LoadLockedReq hits
system.cpu.dcache.LoadLockedReq_accesses::.cpu.data           34                       # number of LoadLockedReq accesses(hits+misses)
system.cpu.dcache.LoadLockedReq_accesses::total           34                       # number of LoadLockedReq accesses(hits+misses)
system.cpu.dcache.StoreCondReq_hits::.cpu.data           34                       # number of StoreCondReq hits
system.cpu.dcache.StoreCondReq_hits::total           34                       # number of StoreCondReq hits
system.cpu.dcache.StoreCondReq_accesses::.cpu.data           34                       # number of StoreCondReq accesses(hits+misses)
system.cpu.dcache.StoreCondReq_accesses::total           34                       # number of StoreCondReq accesses(hits+misses)
system.cpu.dcache.power_state.pwrStateResidencyTicks::UNDEFINED 513831475500                       # Cumulative time (in ticks) in various power states
system.cpu.dcache.tags.tagsinuse          1023.729176                       # Cycle average of tags in use
system.cpu.dcache.tags.total_refs            81120407                       # Total number of references to valid blocks.
system.cpu.dcache.tags.sampled_refs           5263371                       # Sample count of references to valid blocks.
system.cpu.dcache.tags.avg_refs             15.412253                       # Average number of references to valid blocks.
system.cpu.dcache.tags.warmup_cycle            176500                       # Cycle when the warmup percentage was hit.
system.cpu.dcache.tags.occ_blocks::.cpu.data  1023.729176                       # Average occupied blocks per requestor
system.cpu.dcache.tags.occ_percent::.cpu.data     0.999736                       # Average percentage of cache occupancy
system.cpu.dcache.tags.occ_percent::total     0.999736                       # Average percentage of cache occupancy
system.cpu.dcache.tags.occ_task_id_blocks::1024         1024                       # Occupied blocks per task id
system.cpu.dcache.tags.age_task_id_blocks_1024::0          102                       # Occupied blocks per task id
system.cpu.dcache.tags.age_task_id_blocks_1024::1          922                       # Occupied blocks per task id
system.cpu.dcache.tags.occ_task_id_percent::1024            1                       # Percentage of cache occupancy per task id
system.cpu.dcache.tags.tag_accesses         350786831                       # Number of tag accesses
system.cpu.dcache.tags.data_accesses        350786831                       # Number of data accesses
system.cpu.dcache.tags.power_state.pwrStateResidencyTicks::UNDEFINED 513831475500                       # Cumulative time (in ticks) in various power states
system.cpu.dtb.instHits                             0                       # ITB inst hits
system.cpu.dtb.instMisses                           0                       # ITB inst misses
system.cpu.dtb.readHits                             0                       # DTB read hits
system.cpu.dtb.readMisses                           0                       # DTB read misses
system.cpu.dtb.writeHits                            0                       # DTB write hits
system.cpu.dtb.writeMisses                          0                       # DTB write misses
system.cpu.dtb.inserts                              0                       # Number of times an entry is inserted into the TLB
system.cpu.dtb.flushTlb                             0                       # Number of times complete TLB was flushed
system.cpu.dtb.flushTlbMva                          0                       # Number of times TLB was flushed by MVA
system.cpu.dtb.flushTlbMvaAsid                      0                       # Number of times TLB was flushed by MVA & ASID
system.cpu.dtb.flushTlbAsid                         0                       # Number of times TLB was flushed by ASID
system.cpu.dtb.flushedEntries                       0                       # Number of entries that have been flushed from TLB
system.cpu.dtb.alignFaults                          0                       # Number of TLB faults due to alignment restrictions
system.cpu.dtb.prefetchFaults                       0                       # Number of TLB faults due to prefetch
system.cpu.dtb.domainFaults                         0                       # Number of TLB faults due to domain restrictions
system.cpu.dtb.permsFaults                          0                       # Number of TLB faults due to permissions restrictions
system.cpu.dtb.readAccesses                         0                       # DTB read accesses
system.cpu.dtb.writeAccesses                        0                       # DTB write accesses
system.cpu.dtb.instAccesses                         0                       # ITB inst accesses
system.cpu.dtb.hits                                 0                       # Total TLB (inst and data) hits
system.cpu.dtb.misses                               0                       # Total TLB (inst and data) misses
system.cpu.dtb.accesses                             0                       # Total TLB (inst and data) accesses
system.cpu.dtb.stage2_mmu.stage2_tlb.instHits            0                       # ITB inst hits
system.cpu.dtb.stage2_mmu.stage2_tlb.instMisses            0                       # ITB inst misses
system.cpu.dtb.stage2_mmu.stage2_tlb.readHits            0                       # DTB read hits
system.cpu.dtb.stage2_mmu.stage2_tlb.readMisses            0                       # DTB read misses
system.cpu.dtb.stage2_mmu.stage2_tlb.writeHits            0                       # DTB write hits
system.cpu.dtb.stage2_mmu.stage2_tlb.writeMisses            0                       # DTB write misses
system.cpu.dtb.stage2_mmu.stage2_tlb.inserts            0                       # Number of times an entry is inserted into the TLB
system.cpu.dtb.stage2_mmu.stage2_tlb.flushTlb            0                       # Number of times complete TLB was flushed
system.cpu.dtb.stage2_mmu.stage2_tlb.flushTlbMva            0                       # Number of times TLB was flushed by MVA
system.cpu.dtb.stage2_mmu.stage2_tlb.flushTlbMvaAsid            0                       # Number of times TLB was flushed by MVA & ASID
system.cpu.dtb.stage2_mmu.stage2_tlb.flushTlbAsid            0                       # Number of times TLB was flushed by ASID
system.cpu.dtb.stage2_mmu.stage2_tlb.flushedEntries            0                       # Number of entries that have been flushed from TLB
system.cpu.dtb.stage2_mmu.stage2_tlb.alignFaults            0                       # Number of TLB faults due to alignment restrictions
system.cpu.dtb.stage2_mmu.stage2_tlb.prefetchFaults            0                       # Number of TLB faults due to prefetch
system.cpu.dtb.stage2_mmu.stage2_tlb.domainFaults            0                       # Number of TLB faults due to domain restrictions
system.cpu.dtb.stage2_mmu.stage2_tlb.permsFaults            0                       # Number of TLB faults due to permissions restrictions
system.cpu.dtb.stage2_mmu.stage2_tlb.readAccesses            0                       # DTB read accesses
system.cpu.dtb.stage2_mmu.stage2_tlb.writeAccesses            0                       # DTB write accesses
system.cpu.dtb.stage2_mmu.stage2_tlb.instAccesses            0                       # ITB inst accesses
system.cpu.dtb.stage2_mmu.stage2_tlb.hits            0                       # Total TLB (inst and data) hits
system.cpu.dtb.stage2_mmu.stage2_tlb.misses            0                       # Total TLB (inst and data) misses
system.cpu.dtb.stage2_mmu.stage2_tlb.accesses            0                       # Total TLB (inst and data) accesses
system.cpu.dtb.stage2_mmu.stage2_tlb.walker.walks            0                       # Table walker walks requested
system.cpu.dtb.stage2_mmu.stage2_tlb.walker.requestOrigin_Requested::Data            0                       # Table walker requests started/completed, data/inst
system.cpu.dtb.stage2_mmu.stage2_tlb.walker.requestOrigin_Requested::Inst            0                       # Table walker requests started/completed, data/inst
system.cpu.dtb.stage2_mmu.stage2_tlb.walker.requestOrigin_Requested::total            0                       # Table walker requests started/completed, data/inst
system.cpu.dtb.stage2_mmu.stage2_tlb.walker.requestOrigin_Completed::Data            0                       # Table walker requests started/completed, data/inst
system.cpu.dtb.stage2_mmu.stage2_tlb.walker.requestOrigin_Completed::Inst            0                       # Table walker requests started/completed, data/inst
system.cpu.dtb.stage2_mmu.stage2_tlb.walker.requestOrigin_Completed::total            0                       # Table walker requests started/completed, data/inst
system.cpu.dtb.stage2_mmu.stage2_tlb.walker.requestOrigin::total            0                       # Table walker requests started/completed, data/inst
system.cpu.dtb.stage2_mmu.stage2_tlb.walker.power_state.pwrStateResidencyTicks::UNDEFINED 513831475500                       # Cumulative time (in ticks) in various power states
system.cpu.dtb.walker.walks                         0                       # Table walker walks requested
system.cpu.dtb.walker.requestOrigin_Requested::Data            0                       # Table walker requests started/completed, data/inst
system.cpu.dtb.walker.requestOrigin_Requested::Inst            0                       # Table walker requests started/completed, data/inst
system.cpu.dtb.walker.requestOrigin_Requested::total            0                       # Table walker requests started/completed, data/inst
system.cpu.dtb.walker.requestOrigin_Completed::Data            0                       # Table walker requests started/completed, data/inst
system.cpu.dtb.walker.requestOrigin_Completed::Inst            0                       # Table walker requests started/completed, data/inst
system.cpu.dtb.walker.requestOrigin_Completed::total            0                       # Table walker requests started/completed, data/inst
system.cpu.dtb.walker.requestOrigin::total            0                       # Table walker requests started/completed, data/inst
system.cpu.dtb.walker.power_state.pwrStateResidencyTicks::UNDEFINED 513831475500                       # Cumulative time (in ticks) in various power states
system.cpu.fetch2.intInstructions            45070718                       # Number of integer instructions successfully decoded
system.cpu.fetch2.fpInstructions                    0                       # Number of floating point instructions successfully decoded
system.cpu.fetch2.vecInstructions                   0                       # Number of SIMD instructions successfully decoded
system.cpu.fetch2.loadInstructions            2086375                       # Number of memory load instructions successfully decoded
system.cpu.fetch2.storeInstructions            169114                       # Number of memory store instructions successfully decoded
system.cpu.fetch2.amoInstructions                   0                       # Number of memory atomic instructions successfully decoded
system.cpu.icache.demand_hits::.cpu.inst     32133368                       # number of demand (read+write) hits
system.cpu.icache.demand_hits::total         32133368                       # number of demand (read+write) hits
system.cpu.icache.overall_hits::.cpu.inst     32133368                       # number of overall hits
system.cpu.icache.overall_hits::total        32133368                       # number of overall hits
system.cpu.icache.demand_misses::.cpu.inst          610                       # number of demand (read+write) misses
system.cpu.icache.demand_misses::total            610                       # number of demand (read+write) misses
system.cpu.icache.overall_misses::.cpu.inst          610                       # number of overall misses
system.cpu.icache.overall_misses::total           610                       # number of overall misses
system.cpu.icache.demand_miss_latency::.cpu.inst     48092500                       # number of demand (read+write) miss cycles
system.cpu.icache.demand_miss_latency::total     48092500                       # number of demand (read+write) miss cycles
system.cpu.icache.overall_miss_latency::.cpu.inst     48092500                       # number of overall miss cycles
system.cpu.icache.overall_miss_latency::total     48092500                       # number of overall miss cycles
system.cpu.icache.demand_accesses::.cpu.inst     32133978                       # number of demand (read+write) accesses
system.cpu.icache.demand_accesses::total     32133978                       # number of demand (read+write) accesses
system.cpu.icache.overall_accesses::.cpu.inst     32133978                       # number of overall (read+write) accesses
system.cpu.icache.overall_accesses::total     32133978                       # number of overall (read+write) accesses
system.cpu.icache.demand_miss_rate::.cpu.inst     0.000019                       # miss rate for demand accesses
system.cpu.icache.demand_miss_rate::total     0.000019                       # miss rate for demand accesses
system.cpu.icache.overall_miss_rate::.cpu.inst     0.000019                       # miss rate for overall accesses
system.cpu.icache.overall_miss_rate::total     0.000019                       # miss rate for overall accesses
system.cpu.icache.demand_avg_miss_latency::.cpu.inst 78840.163934                       # average overall miss latency
system.cpu.icache.demand_avg_miss_latency::total 78840.163934                       # average overall miss latency
system.cpu.icache.overall_avg_miss_latency::.cpu.inst 78840.163934                       # average overall miss latency
system.cpu.icache.overall_avg_miss_latency::total 78840.163934                       # average overall miss latency
system.cpu.icache.blocked_cycles::no_mshrs            0                       # number of cycles access was blocked
system.cpu.icache.blocked_cycles::no_targets            0                       # number of cycles access was blocked
system.cpu.icache.blocked::no_mshrs                 0                       # number of cycles access was blocked
system.cpu.icache.blocked::no_targets               0                       # number of cycles access was blocked
system.cpu.icache.avg_blocked_cycles::no_mshrs          nan                       # average number of cycles each access was blocked
system.cpu.icache.avg_blocked_cycles::no_targets          nan                       # average number of cycles each access was blocked
system.cpu.icache.demand_mshr_misses::.cpu.inst          610                       # number of demand (read+write) MSHR misses
system.cpu.icache.demand_mshr_misses::total          610                       # number of demand (read+write) MSHR misses
system.cpu.icache.overall_mshr_misses::.cpu.inst          610                       # number of overall MSHR misses
system.cpu.icache.overall_mshr_misses::total          610                       # number of overall MSHR misses
system.cpu.icache.demand_mshr_miss_latency::.cpu.inst     47482500                       # number of demand (read+write) MSHR miss cycles
system.cpu.icache.demand_mshr_miss_latency::total     47482500                       # number of demand (read+write) MSHR miss cycles
system.cpu.icache.overall_mshr_miss_latency::.cpu.inst     47482500                       # number of overall MSHR miss cycles
system.cpu.icache.overall_mshr_miss_latency::total     47482500                       # number of overall MSHR miss cycles
system.cpu.icache.demand_mshr_miss_rate::.cpu.inst     0.000019                       # mshr miss rate for demand accesses
system.cpu.icache.demand_mshr_miss_rate::total     0.000019                       # mshr miss rate for demand accesses
system.cpu.icache.overall_mshr_miss_rate::.cpu.inst     0.000019                       # mshr miss rate for overall accesses
system.cpu.icache.overall_mshr_miss_rate::total     0.000019                       # mshr miss rate for overall accesses
system.cpu.icache.demand_avg_mshr_miss_latency::.cpu.inst 77840.163934                       # average overall mshr miss latency
system.cpu.icache.demand_avg_mshr_miss_latency::total 77840.163934                       # average overall mshr miss latency
system.cpu.icache.overall_avg_mshr_miss_latency::.cpu.inst 77840.163934                       # average overall mshr miss latency
system.cpu.icache.overall_avg_mshr_miss_latency::total 77840.163934                       # average overall mshr miss latency
system.cpu.icache.replacements                      0                       # number of replacements
system.cpu.icache.ReadReq_hits::.cpu.inst     32133368                       # number of ReadReq hits
system.cpu.icache.ReadReq_hits::total        32133368                       # number of ReadReq hits
system.cpu.icache.ReadReq_misses::.cpu.inst          610                       # number of ReadReq misses
system.cpu.icache.ReadReq_misses::total           610                       # number of ReadReq misses
system.cpu.icache.ReadReq_miss_latency::.cpu.inst     48092500                       # number of ReadReq miss cycles
system.cpu.icache.ReadReq_miss_latency::total     48092500                       # number of ReadReq miss cycles
system.cpu.icache.ReadReq_accesses::.cpu.inst     32133978                       # number of ReadReq accesses(hits+misses)
system.cpu.icache.ReadReq_accesses::total     32133978                       # number of ReadReq accesses(hits+misses)
system.cpu.icache.ReadReq_miss_rate::.cpu.inst     0.000019                       # miss rate for ReadReq accesses
system.cpu.icache.ReadReq_miss_rate::total     0.000019                       # miss rate for ReadReq accesses
system.cpu.icache.ReadReq_avg_miss_latency::.cpu.inst 78840.163934                       # average ReadReq miss latency
system.cpu.icache.ReadReq_avg_miss_latency::total 78840.163934                       # average ReadReq miss latency
system.cpu.icache.ReadReq_mshr_misses::.cpu.inst          610                       # number of ReadReq MSHR misses
system.cpu.icache.ReadReq_mshr_misses::total          610                       # number of ReadReq MSHR misses
system.cpu.icache.ReadReq_mshr_miss_latency::.cpu.inst     47482500                       # number of ReadReq MSHR miss cycles
system.cpu.icache.ReadReq_mshr_miss_latency::total     47482500                       # number of ReadReq MSHR miss cycles
system.cpu.icache.ReadReq_mshr_miss_rate::.cpu.inst     0.000019                       # mshr miss rate for ReadReq accesses
system.cpu.icache.ReadReq_mshr_miss_rate::total     0.000019                       # mshr miss rate for ReadReq accesses
system.cpu.icache.ReadReq_avg_mshr_miss_latency::.cpu.inst 77840.163934                       # average ReadReq mshr miss latency
system.cpu.icache.ReadReq_avg_mshr_miss_latency::total 77840.163934                       # average ReadReq mshr miss latency
system.cpu.icache.power_state.pwrStateResidencyTicks::UNDEFINED 513831475500                       # Cumulative time (in ticks) in various power states
system.cpu.icache.tags.tagsinuse           509.657074                       # Cycle average of tags in use
system.cpu.icache.tags.total_refs            32133978                       # Total number of references to valid blocks.
system.cpu.icache.tags.sampled_refs               610                       # Sample count of references to valid blocks.
system.cpu.icache.tags.avg_refs          52678.652459                       # Average number of references to valid blocks.
system.cpu.icache.tags.warmup_cycle             87500                       # Cycle when the warmup percentage was hit.
system.cpu.icache.tags.occ_blocks::.cpu.inst   509.657074                       # Average occupied blocks per requestor
system.cpu.icache.tags.occ_percent::.cpu.inst     0.248856                       # Average percentage of cache occupancy
system.cpu.icache.tags.occ_percent::total     0.248856                       # Average percentage of cache occupancy
system.cpu.icache.tags.occ_task_id_blocks::1024          610                       # Occupied blocks per task id
system.cpu.icache.tags.age_task_id_blocks_1024::4          610                       # Occupied blocks per task id
system.cpu.icache.tags.occ_task_id_percent::1024     0.297852                       # Percentage of cache occupancy per task id
system.cpu.icache.tags.tag_accesses         128536522                       # Number of tag accesses
system.cpu.icache.tags.data_accesses        128536522                       # Number of data accesses
system.cpu.icache.tags.power_state.pwrStateResidencyTicks::UNDEFINED 513831475500                       # Cumulative time (in ticks) in various power states
system.cpu.itb.instHits                             0                       # ITB inst hits
system.cpu.itb.instMisses                           0                       # ITB inst misses
system.cpu.itb.readHits                             0                       # DTB read hits
system.cpu.itb.readMisses                           0                       # DTB read misses
system.cpu.itb.writeHits                            0                       # DTB write hits
system.cpu.itb.writeMisses                          0                       # DTB write misses
system.cpu.itb.inserts                              0                       # Number of times an entry is inserted into the TLB
system.cpu.itb.flushTlb                             0                       # Number of times complete TLB was flushed
system.cpu.itb.flushTlbMva                          0                       # Number of times TLB was flushed by MVA
system.cpu.itb.flushTlbMvaAsid                      0                       # Number of times TLB was flushed by MVA & ASID
system.cpu.itb.flushTlbAsid                         0                       # Number of times TLB was flushed by ASID
system.cpu.itb.flushedEntries                       0                       # Number of entries that have been flushed from TLB
system.cpu.itb.alignFaults                          0                       # Number of TLB faults due to alignment restrictions
system.cpu.itb.prefetchFaults                       0                       # Number of TLB faults due to prefetch
system.cpu.itb.domainFaults                         0                       # Number of TLB faults due to domain restrictions
system.cpu.itb.permsFaults                          0                       # Number of TLB faults due to permissions restrictions
system.cpu.itb.readAccesses                         0                       # DTB read accesses
system.cpu.itb.writeAccesses                        0                       # DTB write accesses
system.cpu.itb.instAccesses                         0                       # ITB inst accesses
system.cpu.itb.hits                                 0                       # Total TLB (inst and data) hits
system.cpu.itb.misses                               0                       # Total TLB (inst and data) misses
system.cpu.itb.accesses                             0                       # Total TLB (inst and data) accesses
system.cpu.itb.stage2_mmu.stage2_tlb.instHits            0                       # ITB inst hits
system.cpu.itb.stage2_mmu.stage2_tlb.instMisses            0                       # ITB inst misses
system.cpu.itb.stage2_mmu.stage2_tlb.readHits            0                       # DTB read hits
system.cpu.itb.stage2_mmu.stage2_tlb.readMisses            0                       # DTB read misses
system.cpu.itb.stage2_mmu.stage2_tlb.writeHits            0                       # DTB write hits
system.cpu.itb.stage2_mmu.stage2_tlb.writeMisses            0                       # DTB write misses
system.cpu.itb.stage2_mmu.stage2_tlb.inserts            0                       # Number of times an entry is inserted into the TLB
system.cpu.itb.stage2_mmu.stage2_tlb.flushTlb            0                       # Number of times complete TLB was flushed
system.cpu.itb.stage2_mmu.stage2_tlb.flushTlbMva            0                       # Number of times TLB was flushed by MVA
system.cpu.itb.stage2_mmu.stage2_tlb.flushTlbMvaAsid            0                       # Number of times TLB was flushed by MVA & ASID
system.cpu.itb.stage2_mmu.stage2_tlb.flushTlbAsid            0                       # Number of times TLB was flushed by ASID
system.cpu.itb.stage2_mmu.stage2_tlb.flushedEntries            0                       # Number of entries that have been flushed from TLB
system.cpu.itb.stage2_mmu.stage2_tlb.alignFaults            0                       # Number of TLB faults due to alignment restrictions
system.cpu.itb.stage2_mmu.stage2_tlb.prefetchFaults            0                       # Number of TLB faults due to prefetch
system.cpu.itb.stage2_mmu.stage2_tlb.domainFaults            0                       # Number of TLB faults due to domain restrictions
system.cpu.itb.stage2_mmu.stage2_tlb.permsFaults            0                       # Number of TLB faults due to permissions restrictions
system.cpu.itb.stage2_mmu.stage2_tlb.readAccesses            0                       # DTB read accesses
system.cpu.itb.stage2_mmu.stage2_tlb.writeAccesses            0                       # DTB write accesses
system.cpu.itb.stage2_mmu.stage2_tlb.instAccesses            0                       # ITB inst accesses
system.cpu.itb.stage2_mmu.stage2_tlb.hits            0                       # Total TLB (inst and data) hits
system.cpu.itb.stage2_mmu.stage2_tlb.misses            0                       # Total TLB (inst and data) misses
system.cpu.itb.stage2_mmu.stage2_tlb.accesses            0                       # Total TLB (inst and data) accesses
system.cpu.itb.stage2_mmu.stage2_tlb.walker.walks            0                       # Table walker walks requested
system.cpu.itb.stage2_mmu.stage2_tlb.walker.requestOrigin_Requested::Data            0                       # Table walker requests started/completed, data/inst
system.cpu.itb.stage2_mmu.stage2_tlb.walker.requestOrigin_Requested::Inst            0                       # Table walker requests started/completed, data/inst
system.cpu.itb.stage2_mmu.stage2_tlb.walker.requestOrigin_Requested::total            0                       # Table walker requests started/completed, data/inst
system.cpu.itb.stage2_mmu.stage2_tlb.walker.requestOrigin_Completed::Data            0                       # Table walker requests started/completed, data/inst
system.cpu.itb.stage2_mmu.stage2_tlb.walker.requestOrigin_Completed::Inst            0                       # Table walker requests started/completed, data/inst
system.cpu.itb.stage2_mmu.stage2_tlb.walker.requestOrigin_Completed::total            0                       # Table walker requests started/completed, data/inst
system.cpu.itb.stage2_mmu.stage2_tlb.walker.requestOrigin::total            0                       # Table walker requests started/completed, data/inst
system.cpu.itb.stage2_mmu.stage2_tlb.walker.power_state.pwrStateResidencyTicks::UNDEFINED 513831475500                       # Cumulative time (in ticks) in various power states
system.cpu.itb.walker.walks                         0                       # Table walker walks requested
system.cpu.itb.walker.requestOrigin_Requested::Data            0                       # Table walker requests started/completed, data/inst
system.cpu.itb.walker.requestOrigin_Requested::Inst            0                       # Table walker requests started/completed, data/inst
system.cpu.itb.walker.requestOrigin_Requested::total            0                       # Table walker requests started/completed, data/inst
system.cpu.itb.walker.requestOrigin_Completed::Data            0                       # Table walker requests started/completed, data/inst
system.cpu.itb.walker.requestOrigin_Completed::Inst            0                       # Table walker requests started/completed, data/inst
system.cpu.itb.walker.requestOrigin_Completed::total            0                       # Table walker requests started/completed, data/inst
system.cpu.itb.walker.requestOrigin::total            0                       # Table walker requests started/completed, data/inst
system.cpu.itb.walker.power_state.pwrStateResidencyTicks::UNDEFINED 513831475500                       # Cumulative time (in ticks) in various power states
system.cpu.power_state.pwrStateResidencyTicks::ON 513831475500                       # Cumulative time (in ticks) in various power states
system.cpu.thread_0.numInsts                100000001                       # Number of Instructions committed
system.cpu.thread_0.numOps                  184218798                       # Number of Ops committed
system.cpu.thread_0.numMemRefs                      0                       # Number of Memory References
system.cpu_clk_domain.clock                       500                       # Clock period in ticks
system.cpu_voltage_domain.voltage                   1                       # Voltage in Volts
system.l2.demand_hits::.cpu.inst                   24                       # number of demand (read+write) hits
system.l2.demand_hits::.cpu.data                   56                       # number of demand (read+write) hits
system.l2.demand_hits::total                       80                       # number of demand (read+write) hits
system.l2.overall_hits::.cpu.inst                  24                       # number of overall hits
system.l2.overall_hits::.cpu.data                  56                       # number of overall hits
system.l2.overall_hits::total                      80                       # number of overall hits
system.l2.demand_misses::.cpu.inst                586                       # number of demand (read+write) misses
system.l2.demand_misses::.cpu.data            5263315                       # number of demand (read+write) misses
system.l2.demand_misses::total                5263901                       # number of demand (read+write) misses
system.l2.overall_misses::.cpu.inst               586                       # number of overall misses
system.l2.overall_misses::.cpu.data           5263315                       # number of overall misses
system.l2.overall_misses::total               5263901                       # number of overall misses
system.l2.demand_miss_latency::.cpu.inst     46290500                       # number of demand (read+write) miss cycles
system.l2.demand_miss_latency::.cpu.data 424035907000                       # number of demand (read+write) miss cycles
system.l2.demand_miss_latency::total     424082197500                       # number of demand (read+write) miss cycles
system.l2.overall_miss_latency::.cpu.inst     46290500                       # number of overall miss cycles
system.l2.overall_miss_latency::.cpu.data 424035907000                       # number of overall miss cycles
system.l2.overall_miss_latency::total    424082197500                       # number of overall miss cycles
system.l2.demand_accesses::.cpu.inst              610                       # number of demand (read+write) accesses
system.l2.demand_accesses::.cpu.data          5263371                       # number of demand (read+write) accesses
system.l2.demand_accesses::total              5263981                       # number of demand (read+write) accesses
system.l2.overall_accesses::.cpu.inst             610                       # number of overall (read+write) accesses
system.l2.overall_accesses::.cpu.data         5263371                       # number of overall (read+write) accesses
system.l2.overall_accesses::total             5263981                       # number of overall (read+write) accesses
system.l2.demand_miss_rate::.cpu.inst        0.960656                       # miss rate for demand accesses
system.l2.demand_miss_rate::.cpu.data        0.999989                       # miss rate for demand accesses
system.l2.demand_miss_rate::total            0.999985                       # miss rate for demand accesses
system.l2.overall_miss_rate::.cpu.inst       0.960656                       # miss rate for overall accesses
system.l2.overall_miss_rate::.cpu.data       0.999989                       # miss rate for overall accesses
system.l2.overall_miss_rate::total           0.999985                       # miss rate for overall accesses
system.l2.demand_avg_miss_latency::.cpu.inst 78994.027304                       # average overall miss latency
system.l2.demand_avg_miss_latency::.cpu.data 80564.417482                       # average overall miss latency
system.l2.demand_avg_miss_latency::total 80564.242660                       # average overall miss latency
system.l2.overall_avg_miss_latency::.cpu.inst 78994.027304                       # average overall miss latency
system.l2.overall_avg_miss_latency::.cpu.data 80564.417482                       # average overall miss latency
system.l2.overall_avg_miss_latency::total 80564.242660                       # average overall miss latency
system.l2.blocked_cycles::no_mshrs                  0                       # number of cycles access was blocked
system.l2.blocked_cycles::no_targets                0                       # number of cycles access was blocked
system.l2.blocked::no_mshrs                         0                       # number of cycles access was blocked
system.l2.blocked::no_targets                       0                       # number of cycles access was blocked
system.l2.avg_blocked_cycles::no_mshrs            nan                       # average number of cycles each access was blocked
system.l2.avg_blocked_cycles::no_targets          nan                       # average number of cycles each access was blocked
system.l2.writebacks::.writebacks             5230285                       # number of writebacks
system.l2.writebacks::total                   5230285                       # number of writebacks
system.l2.demand_mshr_hits::.cpu.inst               2                       # number of demand (read+write) MSHR hits
system.l2.demand_mshr_hits::.cpu.data               5                       # number of demand (read+write) MSHR hits
system.l2.demand_mshr_hits::total                   7                       # number of demand (read+write) MSHR hits
system.l2.overall_mshr_hits::.cpu.inst              2                       # number of overall MSHR hits
system.l2.overall_mshr_hits::.cpu.data              5                       # number of overall MSHR hits
system.l2.overall_mshr_hits::total                  7                       # number of overall MSHR hits
system.l2.demand_mshr_misses::.cpu.inst           584                       # number of demand (read+write) MSHR misses
system.l2.demand_mshr_misses::.cpu.data       5263310                       # number of demand (read+write) MSHR misses
system.l2.demand_mshr_misses::total           5263894                       # number of demand (read+write) MSHR misses
system.l2.overall_mshr_misses::.cpu.inst          584                       # number of overall MSHR misses
system.l2.overall_mshr_misses::.cpu.data      5263310                       # number of overall MSHR misses
system.l2.overall_mshr_misses::total          5263894                       # number of overall MSHR misses
system.l2.demand_mshr_miss_latency::.cpu.inst     40303000                       # number of demand (read+write) MSHR miss cycles
system.l2.demand_mshr_miss_latency::.cpu.data 371402481500                       # number of demand (read+write) MSHR miss cycles
system.l2.demand_mshr_miss_latency::total 371442784500                       # number of demand (read+write) MSHR miss cycles
system.l2.overall_mshr_miss_latency::.cpu.inst     40303000                       # number of overall MSHR miss cycles
system.l2.overall_mshr_miss_latency::.cpu.data 371402481500                       # number of overall MSHR miss cycles
system.l2.overall_mshr_miss_latency::total 371442784500                       # number of overall MSHR miss cycles
system.l2.demand_mshr_miss_rate::.cpu.inst     0.957377                       # mshr miss rate for demand accesses
system.l2.demand_mshr_miss_rate::.cpu.data     0.999988                       # mshr miss rate for demand accesses
system.l2.demand_mshr_miss_rate::total       0.999983                       # mshr miss rate for demand accesses
system.l2.overall_mshr_miss_rate::.cpu.inst     0.957377                       # mshr miss rate for overall accesses
system.l2.overall_mshr_miss_rate::.cpu.data     0.999988                       # mshr miss rate for overall accesses
system.l2.overall_mshr_miss_rate::total      0.999983                       # mshr miss rate for overall accesses
system.l2.demand_avg_mshr_miss_latency::.cpu.inst 69011.986301                       # average overall mshr miss latency
system.l2.demand_avg_mshr_miss_latency::.cpu.data 70564.432173                       # average overall mshr miss latency
system.l2.demand_avg_mshr_miss_latency::total 70564.259938                       # average overall mshr miss latency
system.l2.overall_avg_mshr_miss_latency::.cpu.inst 69011.986301                       # average overall mshr miss latency
system.l2.overall_avg_mshr_miss_latency::.cpu.data 70564.432173                       # average overall mshr miss latency
system.l2.overall_avg_mshr_miss_latency::total 70564.259938                       # average overall mshr miss latency
system.l2.replacements                        5231126                       # number of replacements
system.l2.WritebackDirty_hits::.writebacks      5262053                       # number of WritebackDirty hits
system.l2.WritebackDirty_hits::total          5262053                       # number of WritebackDirty hits
system.l2.WritebackDirty_accesses::.writebacks      5262053                       # number of WritebackDirty accesses(hits+misses)
system.l2.WritebackDirty_accesses::total      5262053                       # number of WritebackDirty accesses(hits+misses)
system.l2.ReadExReq_hits::.cpu.data                13                       # number of ReadExReq hits
system.l2.ReadExReq_hits::total                    13                       # number of ReadExReq hits
system.l2.ReadExReq_misses::.cpu.data         5263025                       # number of ReadExReq misses
system.l2.ReadExReq_misses::total             5263025                       # number of ReadExReq misses
system.l2.ReadExReq_miss_latency::.cpu.data 424010522000                       # number of ReadExReq miss cycles
system.l2.ReadExReq_miss_latency::total  424010522000                       # number of ReadExReq miss cycles
system.l2.ReadExReq_accesses::.cpu.data       5263038                       # number of ReadExReq accesses(hits+misses)
system.l2.ReadExReq_accesses::total           5263038                       # number of ReadExReq accesses(hits+misses)
system.l2.ReadExReq_miss_rate::.cpu.data     0.999998                       # miss rate for ReadExReq accesses
system.l2.ReadExReq_miss_rate::total         0.999998                       # miss rate for ReadExReq accesses
system.l2.ReadExReq_avg_miss_latency::.cpu.data 80564.033422                       # average ReadExReq miss latency
system.l2.ReadExReq_avg_miss_latency::total 80564.033422                       # average ReadExReq miss latency
system.l2.ReadExReq_mshr_misses::.cpu.data      5263025                       # number of ReadExReq MSHR misses
system.l2.ReadExReq_mshr_misses::total        5263025                       # number of ReadExReq MSHR misses
system.l2.ReadExReq_mshr_miss_latency::.cpu.data 371380272000                       # number of ReadExReq MSHR miss cycles
system.l2.ReadExReq_mshr_miss_latency::total 371380272000                       # number of ReadExReq MSHR miss cycles
system.l2.ReadExReq_mshr_miss_rate::.cpu.data     0.999998                       # mshr miss rate for ReadExReq accesses
system.l2.ReadExReq_mshr_miss_rate::total     0.999998                       # mshr miss rate for ReadExReq accesses
system.l2.ReadExReq_avg_mshr_miss_latency::.cpu.data 70564.033422                       # average ReadExReq mshr miss latency
system.l2.ReadExReq_avg_mshr_miss_latency::total 70564.033422                       # average ReadExReq mshr miss latency
system.l2.ReadCleanReq_hits::.cpu.inst             24                       # number of ReadCleanReq hits
system.l2.ReadCleanReq_hits::total                 24                       # number of ReadCleanReq hits
system.l2.ReadCleanReq_misses::.cpu.inst          586                       # number of ReadCleanReq misses
system.l2.ReadCleanReq_misses::total              586                       # number of ReadCleanReq misses
system.l2.ReadCleanReq_miss_latency::.cpu.inst     46290500                       # number of ReadCleanReq miss cycles
system.l2.ReadCleanReq_miss_latency::total     46290500                       # number of ReadCleanReq miss cycles
system.l2.ReadCleanReq_accesses::.cpu.inst          610                       # number of ReadCleanReq accesses(hits+misses)
system.l2.ReadCleanReq_accesses::total            610                       # number of ReadCleanReq accesses(hits+misses)
system.l2.ReadCleanReq_miss_rate::.cpu.inst     0.960656                       # miss rate for ReadCleanReq accesses
system.l2.ReadCleanReq_miss_rate::total      0.960656                       # miss rate for ReadCleanReq accesses
system.l2.ReadCleanReq_avg_miss_latency::.cpu.inst 78994.027304                       # average ReadCleanReq miss latency
system.l2.ReadCleanReq_avg_miss_latency::total 78994.027304                       # average ReadCleanReq miss latency
system.l2.ReadCleanReq_mshr_hits::.cpu.inst            2                       # number of ReadCleanReq MSHR hits
system.l2.ReadCleanReq_mshr_hits::total             2                       # number of ReadCleanReq MSHR hits
system.l2.ReadCleanReq_mshr_misses::.cpu.inst          584                       # number of ReadCleanReq MSHR misses
system.l2.ReadCleanReq_mshr_misses::total          584                       # number of ReadCleanReq MSHR misses
system.l2.ReadCleanReq_mshr_miss_latency::.cpu.inst     40303000                       # number of ReadCleanReq MSHR miss cycles
system.l2.ReadCleanReq_mshr_miss_latency::total     40303000                       # number of ReadCleanReq MSHR miss cycles
system.l2.ReadCleanReq_mshr_miss_rate::.cpu.inst     0.957377                       # mshr miss rate for ReadCleanReq accesses
system.l2.ReadCleanReq_mshr_miss_rate::total     0.957377                       # mshr miss rate for ReadCleanReq accesses
system.l2.ReadCleanReq_avg_mshr_miss_latency::.cpu.inst 69011.986301                       # average ReadCleanReq mshr miss latency
system.l2.ReadCleanReq_avg_mshr_miss_latency::total 69011.986301                       # average ReadCleanReq mshr miss latency
system.l2.ReadSharedReq_hits::.cpu.data            43                       # number of ReadSharedReq hits
system.l2.ReadSharedReq_hits::total                43                       # number of ReadSharedReq hits
system.l2.ReadSharedReq_misses::.cpu.data          290                       # number of ReadSharedReq misses
system.l2.ReadSharedReq_misses::total             290                       # number of ReadSharedReq misses
system.l2.ReadSharedReq_miss_latency::.cpu.data     25385000                       # number of ReadSharedReq miss cycles
system.l2.ReadSharedReq_miss_latency::total     25385000                       # number of ReadSharedReq miss cycles
system.l2.ReadSharedReq_accesses::.cpu.data          333                       # number of ReadSharedReq accesses(hits+misses)
system.l2.ReadSharedReq_accesses::total           333                       # number of ReadSharedReq accesses(hits+misses)
system.l2.ReadSharedReq_miss_rate::.cpu.data     0.870871                       # miss rate for ReadSharedReq accesses
system.l2.ReadSharedReq_miss_rate::total     0.870871                       # miss rate for ReadSharedReq accesses
system.l2.ReadSharedReq_avg_miss_latency::.cpu.data 87534.482759                       # average ReadSharedReq miss latency
system.l2.ReadSharedReq_avg_miss_latency::total 87534.482759                       # average ReadSharedReq miss latency
system.l2.ReadSharedReq_mshr_hits::.cpu.data            5                       # number of ReadSharedReq MSHR hits
system.l2.ReadSharedReq_mshr_hits::total            5                       # number of ReadSharedReq MSHR hits
system.l2.ReadSharedReq_mshr_misses::.cpu.data          285                       # number of ReadSharedReq MSHR misses
system.l2.ReadSharedReq_mshr_misses::total          285                       # number of ReadSharedReq MSHR misses
system.l2.ReadSharedReq_mshr_miss_latency::.cpu.data     22209500                       # number of ReadSharedReq MSHR miss cycles
system.l2.ReadSharedReq_mshr_miss_latency::total     22209500                       # number of ReadSharedReq MSHR miss cycles
system.l2.ReadSharedReq_mshr_miss_rate::.cpu.data     0.855856                       # mshr miss rate for ReadSharedReq accesses
system.l2.ReadSharedReq_mshr_miss_rate::total     0.855856                       # mshr miss rate for ReadSharedReq accesses
system.l2.ReadSharedReq_avg_mshr_miss_latency::.cpu.data 77928.070175                       # average ReadSharedReq mshr miss latency
system.l2.ReadSharedReq_avg_mshr_miss_latency::total 77928.070175                       # average ReadSharedReq mshr miss latency
system.l2.power_state.pwrStateResidencyTicks::UNDEFINED 513831475500                       # Cumulative time (in ticks) in various power states
system.l2.tags.tagsinuse                 32512.613317                       # Cycle average of tags in use
system.l2.tags.total_refs                    10526260                       # Total number of references to valid blocks.
system.l2.tags.sampled_refs                   5263894                       # Sample count of references to valid blocks.
system.l2.tags.avg_refs                      1.999710                       # Average number of references to valid blocks.
system.l2.tags.warmup_cycle                     77000                       # Cycle when the warmup percentage was hit.
system.l2.tags.occ_blocks::.cpu.inst         5.153744                       # Average occupied blocks per requestor
system.l2.tags.occ_blocks::.cpu.data     32507.459573                       # Average occupied blocks per requestor
system.l2.tags.occ_percent::.cpu.inst        0.000157                       # Average percentage of cache occupancy
system.l2.tags.occ_percent::.cpu.data        0.992049                       # Average percentage of cache occupancy
system.l2.tags.occ_percent::total            0.992206                       # Average percentage of cache occupancy
system.l2.tags.occ_task_id_blocks::1024         32768                       # Occupied blocks per task id
system.l2.tags.age_task_id_blocks_1024::0          102                       # Occupied blocks per task id
system.l2.tags.age_task_id_blocks_1024::1          926                       # Occupied blocks per task id
system.l2.tags.age_task_id_blocks_1024::2         9270                       # Occupied blocks per task id
system.l2.tags.age_task_id_blocks_1024::3        22470                       # Occupied blocks per task id
system.l2.tags.occ_task_id_percent::1024            1                       # Percentage of cache occupancy per task id
system.l2.tags.tag_accesses                 173684166                       # Number of tag accesses
system.l2.tags.data_accesses                173684166                       # Number of data accesses
system.l2.tags.power_state.pwrStateResidencyTicks::UNDEFINED 513831475500                       # Cumulative time (in ticks) in various power states
system.mem_ctrls.avgPriority_.writebacks::samples   5230285.00                       # Average QoS priority value for accepted requests
system.mem_ctrls.avgPriority_.cpu.inst::samples       584.00                       # Average QoS priority value for accepted requests
system.mem_ctrls.avgPriority_.cpu.data::samples   5263310.00                       # Average QoS priority value for accepted requests
system.mem_ctrls.priorityMinLatency      0.000000018750                       # per QoS priority minimum request to response latency (s)
system.mem_ctrls.priorityMaxLatency      0.000241613250                       # per QoS priority maximum request to response latency (s)
system.mem_ctrls.numReadWriteTurnArounds       326850                       # Number of turnarounds from READ to WRITE
system.mem_ctrls.numWriteReadTurnArounds       326850                       # Number of turnarounds from WRITE to READ
system.mem_ctrls.numStayReadState            15552788                       # Number of times bus staying in READ state
system.mem_ctrls.numStayWriteState            4912789                       # Number of times bus staying in WRITE state
system.mem_ctrls.readReqs                     5263894                       # Number of read requests accepted
system.mem_ctrls.writeReqs                    5230285                       # Number of write requests accepted
system.mem_ctrls.readBursts                   5263894                       # Number of controller read bursts, including those serviced by the write queue
system.mem_ctrls.writeBursts                  5230285                       # Number of controller write bursts, including those merged in the write queue
system.mem_ctrls.servicedByWrQ                      0                       # Number of controller read bursts serviced by the write queue
system.mem_ctrls.mergedWrBursts                     0                       # Number of controller write bursts merged with an existing one
system.mem_ctrls.neitherReadNorWriteReqs            0                       # Number of requests that are neither read nor write
system.mem_ctrls.avgRdQLen                       1.01                       # Average read queue length when enqueuing
system.mem_ctrls.avgWrQLen                      25.81                       # Average write queue length when enqueuing
system.mem_ctrls.numRdRetry                         0                       # Number of times read queue was full causing retry
system.mem_ctrls.numWrRetry                         0                       # Number of times write queue was full causing retry
system.mem_ctrls.readPktSize::0                     0                       # Read request sizes (log2)
system.mem_ctrls.readPktSize::1                     0                       # Read request sizes (log2)
system.mem_ctrls.readPktSize::2                     0                       # Read request sizes (log2)
system.mem_ctrls.readPktSize::3                     0                       # Read request sizes (log2)
system.mem_ctrls.readPktSize::4                     0                       # Read request sizes (log2)
system.mem_ctrls.readPktSize::5                     0                       # Read request sizes (log2)
system.mem_ctrls.readPktSize::6               5263894                       # Read request sizes (log2)
system.mem_ctrls.writePktSize::0                    0                       # Write request sizes (log2)
system.mem_ctrls.writePktSize::1                    0                       # Write request sizes (log2)
system.mem_ctrls.writePktSize::2                    0                       # Write request sizes (log2)
system.mem_ctrls.writePktSize::3                    0                       # Write request sizes (log2)
system.mem_ctrls.writePktSize::4                    0                       # Write request sizes (log2)
system.mem_ctrls.writePktSize::5                    0                       # Write request sizes (log2)
system.mem_ctrls.writePktSize::6              5230285                       # Write request sizes (log2)
system.mem_ctrls.rdQLenPdf::0                 5262911                       # What read queue length does an incoming req see
system.mem_ctrls.rdQLenPdf::1                     956                       # What read queue length does an incoming req see
system.mem_ctrls.rdQLenPdf::2                      24                       # What read queue length does an incoming req see
system.mem_ctrls.rdQLenPdf::3                       2                       # What read queue length does an incoming req see
system.mem_ctrls.rdQLenPdf::4                       1                       # What read queue length does an incoming req see
system.mem_ctrls.rdQLenPdf::5                       0                       # What read queue length does an incoming req see
system.mem_ctrls.rdQLenPdf::6                       0                       # What read queue length does an incoming req see
system.mem_ctrls.rdQLenPdf::7                       0                       # What read queue length does an incoming req see
system.mem_ctrls.rdQLenPdf::8                       0                       # What read queue length does an incoming req see
system.mem_ctrls.rdQLenPdf::9                       0                       # What read queue length does an incoming req see
system.mem_ctrls.rdQLenPdf::10                      0                       # What read queue length does an incoming req see
system.mem_ctrls.rdQLenPdf::11                      0                       # What read queue length does an incoming req see
system.mem_ctrls.rdQLenPdf::12                      0                       # What read queue length does an incoming req see
system.mem_ctrls.rdQLenPdf::13                      0                       # What read queue length does an incoming req see
system.mem_ctrls.rdQLenPdf::14                      0                       # What read queue length does an incoming req see
system.mem_ctrls.rdQLenPdf::15                      0                       # What read queue length does an incoming req see
system.mem_ctrls.rdQLenPdf::16                      0                       # What read queue length does an incoming req see
system.mem_ctrls.rdQLenPdf::17                      0                       # What read queue length does an incoming req see
system.mem_ctrls.rdQLenPdf::18                      0                       # What read queue length does an incoming req see
[...]
system.mem_ctrls.dram.bw_inst_read::total        72740                       # Instruction read bandwidth from this memory (bytes/s)
system.mem_ctrls.dram.bw_write::.writebacks    651455304                       # Write bandwidth from this memory (bytes/s)
system.mem_ctrls.dram.bw_write::total       651455304                       # Write bandwidth from this memory (bytes/s)
system.mem_ctrls.dram.bw_total::.writebacks    651455304                       # Total bandwidth to/from this memory (bytes/s)
system.mem_ctrls.dram.bw_total::.cpu.inst        72740                       # Total bandwidth to/from this memory (bytes/s)
system.mem_ctrls.dram.bw_total::.cpu.data    655568715                       # Total bandwidth to/from this memory (bytes/s)
system.mem_ctrls.dram.bw_total::total      1307096758                       # Total bandwidth to/from this memory (bytes/s)
system.mem_ctrls.dram.readBursts              5263894                       # Number of DRAM read bursts
system.mem_ctrls.dram.writeBursts             5230258                       # Number of DRAM write bursts
system.mem_ctrls.dram.perBankRdBursts::0       329031                       # Per bank write bursts
system.mem_ctrls.dram.perBankRdBursts::1       329097                       # Per bank write bursts
system.mem_ctrls.dram.perBankRdBursts::2       329115                       # Per bank write bursts
system.mem_ctrls.dram.perBankRdBursts::3       329008                       # Per bank write bursts
system.mem_ctrls.dram.perBankRdBursts::4       329023                       # Per bank write bursts
system.mem_ctrls.dram.perBankRdBursts::5       329065                       # Per bank write bursts
system.mem_ctrls.dram.perBankRdBursts::6       329081                       # Per bank write bursts
system.mem_ctrls.dram.perBankRdBursts::7       328938                       # Per bank write bursts
system.mem_ctrls.dram.perBankRdBursts::8       328898                       # Per bank write bursts
system.mem_ctrls.dram.perBankRdBursts::9       328866                       # Per bank write bursts
system.mem_ctrls.dram.perBankRdBursts::10       328904                       # Per bank write bursts
system.mem_ctrls.dram.perBankRdBursts::11       328955                       # Per bank write bursts
system.mem_ctrls.dram.perBankRdBursts::12       329023                       # Per bank write bursts
system.mem_ctrls.dram.perBankRdBursts::13       329024                       # Per bank write bursts
system.mem_ctrls.dram.perBankRdBursts::14       329058                       # Per bank write bursts
system.mem_ctrls.dram.perBankRdBursts::15       328808                       # Per bank write bursts
system.mem_ctrls.dram.perBankWrBursts::0       326856                       # Per bank write bursts
system.mem_ctrls.dram.perBankWrBursts::1       326969                       # Per bank write bursts
system.mem_ctrls.dram.perBankWrBursts::2       327004                       # Per bank write bursts
system.mem_ctrls.dram.perBankWrBursts::3       326930                       # Per bank write bursts
system.mem_ctrls.dram.perBankWrBursts::4       326969                       # Per bank write bursts
system.mem_ctrls.dram.perBankWrBursts::5       326973                       # Per bank write bursts
system.mem_ctrls.dram.perBankWrBursts::6       326986                       # Per bank write bursts
system.mem_ctrls.dram.perBankWrBursts::7       326872                       # Per bank write bursts
system.mem_ctrls.dram.perBankWrBursts::8       326784                       # Per bank write bursts
system.mem_ctrls.dram.perBankWrBursts::9       326784                       # Per bank write bursts
system.mem_ctrls.dram.perBankWrBursts::10       326784                       # Per bank write bursts
system.mem_ctrls.dram.perBankWrBursts::11       326858                       # Per bank write bursts
system.mem_ctrls.dram.perBankWrBursts::12       326930                       # Per bank write bursts
system.mem_ctrls.dram.perBankWrBursts::13       326912                       # Per bank write bursts
system.mem_ctrls.dram.perBankWrBursts::14       326918                       # Per bank write bursts
system.mem_ctrls.dram.perBankWrBursts::15       326729                       # Per bank write bursts
system.mem_ctrls.dram.totQLat             58167611500                       # Total ticks spent queuing
system.mem_ctrls.dram.totBusLat           26319470000                       # Total ticks spent in databus transfers
system.mem_ctrls.dram.totMemAccLat       156865624000                       # Total ticks spent from burst creation until serviced by the DRAM
system.mem_ctrls.dram.avgQLat                11050.30                       # Average queueing delay per DRAM burst
system.mem_ctrls.dram.avgBusLat               5000.00                       # Average bus latency per DRAM burst
system.mem_ctrls.dram.avgMemAccLat           29800.30                       # Average memory access latency per DRAM burst
system.mem_ctrls.dram.readRowHits             4834733                       # Number of row buffer hits during reads
system.mem_ctrls.dram.writeRowHits            4857450                       # Number of row buffer hits during writes
system.mem_ctrls.dram.readRowHitRate            91.85                       # Row buffer hit rate for reads
system.mem_ctrls.dram.writeRowHitRate           92.87                       # Row buffer hit rate for writes
system.mem_ctrls.dram.bytesPerActivate::samples       801967                       # Bytes accessed per row activation
system.mem_ctrls.dram.bytesPerActivate::mean   837.471427                       # Bytes accessed per row activation
system.mem_ctrls.dram.bytesPerActivate::gmean   723.613621                       # Bytes accessed per row activation
system.mem_ctrls.dram.bytesPerActivate::stdev   304.427195                       # Bytes accessed per row activation
system.mem_ctrls.dram.bytesPerActivate::0-127        27544      3.43%      3.43% # Bytes accessed per row activation
system.mem_ctrls.dram.bytesPerActivate::128-255        37288      4.65%      8.08% # Bytes accessed per row activation
system.mem_ctrls.dram.bytesPerActivate::256-383        30201      3.77%     11.85% # Bytes accessed per row activation
system.mem_ctrls.dram.bytesPerActivate::384-511        39964      4.98%     16.83% # Bytes accessed per row activation
system.mem_ctrls.dram.bytesPerActivate::512-639        46520      5.80%     22.63% # Bytes accessed per row activation
system.mem_ctrls.dram.bytesPerActivate::640-767        31844      3.97%     26.60% # Bytes accessed per row activation
system.mem_ctrls.dram.bytesPerActivate::768-895        24847      3.10%     29.70% # Bytes accessed per row activation
system.mem_ctrls.dram.bytesPerActivate::896-1023        42201      5.26%     34.97% # Bytes accessed per row activation
system.mem_ctrls.dram.bytesPerActivate::1024-1151       521558     65.03%    100.00% # Bytes accessed per row activation
system.mem_ctrls.dram.bytesPerActivate::total       801967                       # Bytes accessed per row activation
system.mem_ctrls.dram.bytesRead             336889216                       # Total number of bytes read from DRAM
system.mem_ctrls.dram.bytesWritten          334736512                       # Total number of bytes written to DRAM
system.mem_ctrls.dram.avgRdBW              655.641455                       # Average DRAM read bandwidth in MiBytes/s
system.mem_ctrls.dram.avgWrBW              651.451941                       # Average DRAM write bandwidth in MiBytes/s
system.mem_ctrls.dram.peakBW                 12800.00                       # Theoretical peak bandwidth in MiByte/s
system.mem_ctrls.dram.busUtil                   10.21                       # Data bus utilization in percentage
system.mem_ctrls.dram.busUtilRead                5.12                       # Data bus utilization in percentage for reads
system.mem_ctrls.dram.busUtilWrite               5.09                       # Data bus utilization in percentage for writes
system.mem_ctrls.dram.pageHitRate               92.36                       # Row buffer hit rate, read and write combined
system.mem_ctrls.dram.power_state.pwrStateResidencyTicks::UNDEFINED 513831475500                       # Cumulative time (in ticks) in various power states
system.mem_ctrls.dram.rank0.actEnergy      2863818300                       # Energy for activate commands per rank (pJ)
system.mem_ctrls.dram.rank0.preEnergy      1522147935                       # Energy for precharge commands per rank (pJ)
system.mem_ctrls.dram.rank0.readEnergy    18795036120                       # Energy for read commands per rank (pJ)
system.mem_ctrls.dram.rank0.writeEnergy   13653217980                       # Energy for write commands per rank (pJ)
system.mem_ctrls.dram.rank0.refreshEnergy 40561322880.000008                       # Energy for refresh commands per rank (pJ)
system.mem_ctrls.dram.rank0.actBackEnergy 122952822420                       # Energy for active background per rank (pJ)
system.mem_ctrls.dram.rank0.preBackEnergy  93772068000                       # Energy for precharge background per rank (pJ)
system.mem_ctrls.dram.rank0.actPowerDownEnergy            0                       # Energy for active power-down per rank (pJ)
system.mem_ctrls.dram.rank0.prePowerDownEnergy            0                       # Energy for precharge power-down per rank (pJ)
system.mem_ctrls.dram.rank0.selfRefreshEnergy            0                       # Energy for self refresh per rank (pJ)
system.mem_ctrls.dram.rank0.totalEnergy  294120433635                       # Total energy per rank (pJ)
system.mem_ctrls.dram.rank0.averagePower   572.406417                       # Core power per rank (mW)
system.mem_ctrls.dram.rank0.totalIdleTime            0                       # Total Idle time Per DRAM Rank
system.mem_ctrls.dram.rank0.pwrStateTime::IDLE 239974834750                       # Time in different power states
system.mem_ctrls.dram.rank0.pwrStateTime::REF  17157920000                       # Time in different power states
system.mem_ctrls.dram.rank0.pwrStateTime::SREF            0                       # Time in different power states
system.mem_ctrls.dram.rank0.pwrStateTime::PRE_PDN            0                       # Time in different power states
system.mem_ctrls.dram.rank0.pwrStateTime::ACT 256698720750                       # Time in different power states
system.mem_ctrls.dram.rank0.pwrStateTime::ACT_PDN            0                       # Time in different power states
system.mem_ctrls.dram.rank1.actEnergy      2862240360                       # Energy for activate commands per rank (pJ)
system.mem_ctrls.dram.rank1.preEnergy      1521316830                       # Energy for precharge commands per rank (pJ)
system.mem_ctrls.dram.rank1.readEnergy    18789167040                       # Energy for read commands per rank (pJ)
system.mem_ctrls.dram.rank1.writeEnergy   13648728780                       # Energy for write commands per rank (pJ)
system.mem_ctrls.dram.rank1.refreshEnergy 40561322880.000008                       # Energy for refresh commands per rank (pJ)
system.mem_ctrls.dram.rank1.actBackEnergy 123017369220                       # Energy for active background per rank (pJ)
system.mem_ctrls.dram.rank1.preBackEnergy  93717712800                       # Energy for precharge background per rank (pJ)
system.mem_ctrls.dram.rank1.actPowerDownEnergy            0                       # Energy for active power-down per rank (pJ)
system.mem_ctrls.dram.rank1.prePowerDownEnergy            0                       # Energy for precharge power-down per rank (pJ)
system.mem_ctrls.dram.rank1.selfRefreshEnergy            0                       # Energy for self refresh per rank (pJ)
system.mem_ctrls.dram.rank1.totalEnergy  294117857910                       # Total energy per rank (pJ)
system.mem_ctrls.dram.rank1.averagePower   572.401404                       # Core power per rank (mW)
system.mem_ctrls.dram.rank1.totalIdleTime            0                       # Total Idle time Per DRAM Rank
system.mem_ctrls.dram.rank1.pwrStateTime::IDLE 239837491000                       # Time in different power states
system.mem_ctrls.dram.rank1.pwrStateTime::REF  17157920000                       # Time in different power states
system.mem_ctrls.dram.rank1.pwrStateTime::SREF            0                       # Time in different power states
system.mem_ctrls.dram.rank1.pwrStateTime::PRE_PDN            0                       # Time in different power states
system.mem_ctrls.dram.rank1.pwrStateTime::ACT 256836064500                       # Time in different power states
system.mem_ctrls.dram.rank1.pwrStateTime::ACT_PDN            0                       # Time in different power states
system.mem_ctrls.power_state.pwrStateResidencyTicks::UNDEFINED 513831475500                       # Cumulative time (in ticks) in various power states
system.membus.trans_dist::ReadResp                869                       # Transaction distribution
system.membus.trans_dist::WritebackDirty      5230285                       # Transaction distribution
system.membus.trans_dist::CleanEvict              218                       # Transaction distribution
system.membus.trans_dist::ReadExReq           5263025                       # Transaction distribution
system.membus.trans_dist::ReadExResp          5263025                       # Transaction distribution
system.membus.trans_dist::ReadSharedReq           869                       # Transaction distribution
system.membus.pkt_count_system.l2.mem_side_port::system.mem_ctrls.port     15758291                       # Packet count per connected requestor and responder (bytes)
system.membus.pkt_count::total               15758291                       # Packet count per connected requestor and responder (bytes)
system.membus.pkt_size_system.l2.mem_side_port::system.mem_ctrls.port    671627456                       # Cumulative packet size per connected requestor and responder (bytes)
system.membus.pkt_size::total               671627456                       # Cumulative packet size per connected requestor and responder (bytes)
system.membus.snoops                                0                       # Total snoops (count)
system.membus.snoopTraffic                          0                       # Total snoop traffic (bytes)
system.membus.snoop_fanout::samples           5263894                       # Request fanout histogram
system.membus.snoop_fanout::mean                    0                       # Request fanout histogram
system.membus.snoop_fanout::stdev                   0                       # Request fanout histogram
system.membus.snoop_fanout::underflows              0      0.00%      0.00% # Request fanout histogram
system.membus.snoop_fanout::0                 5263894    100.00%    100.00% # Request fanout histogram
system.membus.snoop_fanout::1                       0      0.00%    100.00% # Request fanout histogram
system.membus.snoop_fanout::overflows               0      0.00%    100.00% # Request fanout histogram
system.membus.snoop_fanout::min_value               0                       # Request fanout histogram
system.membus.snoop_fanout::max_value               0                       # Request fanout histogram
system.membus.snoop_fanout::total             5263894                       # Request fanout histogram
system.membus.power_state.pwrStateResidencyTicks::UNDEFINED 513831475500                       # Cumulative time (in ticks) in various power states
system.membus.reqLayer0.occupancy         31438103500                       # Layer occupancy (ticks)
system.membus.reqLayer0.utilization               6.1                       # Layer utilization (%)
system.membus.respLayer1.occupancy        27686275250                       # Layer occupancy (ticks)
system.membus.respLayer1.utilization              5.4                       # Layer utilization (%)
system.tol2bus.trans_dist::ReadResp               943                       # Transaction distribution
system.tol2bus.trans_dist::WritebackDirty     10492338                       # Transaction distribution
system.tol2bus.trans_dist::CleanEvict            1135                       # Transaction distribution
system.tol2bus.trans_dist::ReadExReq          5263038                       # Transaction distribution
system.tol2bus.trans_dist::ReadExResp         5263038                       # Transaction distribution
system.tol2bus.trans_dist::ReadCleanReq           610                       # Transaction distribution
system.tol2bus.trans_dist::ReadSharedReq          333                       # Transaction distribution
system.tol2bus.pkt_count_system.cpu.icache.mem_side_port::system.l2.cpu_side_port         1220                       # Packet count per connected requestor and responder (bytes)
system.tol2bus.pkt_count_system.cpu.dcache.mem_side_port::system.l2.cpu_side_port     15789089                       # Packet count per connected requestor and responder (bytes)
system.tol2bus.pkt_count::total              15790309                       # Packet count per connected requestor and responder (bytes)
system.tol2bus.pkt_size_system.cpu.icache.mem_side_port::system.l2.cpu_side_port        39040                       # Cumulative packet size per connected requestor and responder (bytes)
system.tol2bus.pkt_size_system.cpu.dcache.mem_side_port::system.l2.cpu_side_port    673627136                       # Cumulative packet size per connected requestor and responder (bytes)
system.tol2bus.pkt_size::total              673666176                       # Cumulative packet size per connected requestor and responder (bytes)
system.tol2bus.snoops                         5231126                       # Total snoops (count)
system.tol2bus.snoopTraffic                 334738240                       # Total snoop traffic (bytes)
system.tol2bus.snoop_fanout::samples         10495107                       # Request fanout histogram
system.tol2bus.snoop_fanout::mean            0.000065                       # Request fanout histogram
system.tol2bus.snoop_fanout::stdev           0.008073                       # Request fanout histogram
system.tol2bus.snoop_fanout::underflows             0      0.00%      0.00% # Request fanout histogram
system.tol2bus.snoop_fanout::0               10494423     99.99%     99.99% # Request fanout histogram
system.tol2bus.snoop_fanout::1                    684      0.01%    100.00% # Request fanout histogram
system.tol2bus.snoop_fanout::2                      0      0.00%    100.00% # Request fanout histogram
system.tol2bus.snoop_fanout::overflows              0      0.00%    100.00% # Request fanout histogram
system.tol2bus.snoop_fanout::min_value              0                       # Request fanout histogram
system.tol2bus.snoop_fanout::max_value              1                       # Request fanout histogram
system.tol2bus.snoop_fanout::total           10495107                       # Request fanout histogram
system.tol2bus.power_state.pwrStateResidencyTicks::UNDEFINED 513831475500                       # Cumulative time (in ticks) in various power states
system.tol2bus.reqLayer0.occupancy        10525217000                       # Layer occupancy (ticks)
system.tol2bus.reqLayer0.utilization              2.0                       # Layer utilization (%)
system.tol2bus.respLayer0.occupancy            915998                       # Layer occupancy (ticks)
system.tol2bus.respLayer0.utilization             0.0                       # Layer utilization (%)
system.tol2bus.respLayer1.occupancy        7895058995                       # Layer occupancy (ticks)
system.tol2bus.respLayer1.utilization             1.5                       # Layer utilization (%)
system.voltage_domain.voltage                       1                       # Voltage in Volts

---------- End Simulation Statistics   ----------
