
---------- Begin Simulation Statistics ----------
final_tick                               280510980500                       # Number of ticks from beginning of simulation (restored from checkpoints and never reset)
host_inst_rate                                 226714                       # Simulator instruction rate (inst/s)
host_mem_usage                                 664948                       # Number of bytes of host memory used
host_op_rate                                   226722                       # Simulator op (including micro ops) rate (op/s)
host_seconds                                   441.08                       # Real time elapsed on the host
host_tick_rate                              635957358                       # Simulator tick rate (ticks/s)
sim_freq                                 1000000000000                       # Frequency of simulated ticks
sim_insts                                   100000000                       # Number of instructions simulated
sim_ops                                     100003638                       # Number of ops (including micro ops) simulated
sim_seconds                                  0.280511                       # Number of seconds simulated
sim_ticks                                280510980500                       # Number of ticks simulated
system.cpu.committedInsts                   100000000                       # Number of instructions committed
system.cpu.committedOps                     100003638                       # Number of ops (including micro ops) committed
system.cpu.cpi                               5.610220                       # CPI: cycles per instruction
system.cpu.discardedOps                         21210                       # Number of ops (including micro ops) which were discarded before commit
system.cpu.idleCycles                       439247560                       # Total number of cycles that the object has spent stopped
system.cpu.ipc                               0.178246                       # IPC: instructions per cycle
system.cpu.numCycles                        561021961                       # number of cpu cycles simulated
system.cpu.numFetchSuspends                         0                       # Number of times Execute suspended instruction fetching
system.cpu.numWorkItemsCompleted                    0                       # number of work items this cpu completed
system.cpu.numWorkItemsStarted                      0                       # number of work items this cpu started
system.cpu.op_class_0::No_OpClass                   0      0.00%      0.00% # Class of committed instruction
system.cpu.op_class_0::IntAlu                49995336     49.99%     49.99% # Class of committed instruction
system.cpu.op_class_0::IntMult                     85      0.00%     49.99% # Class of committed instruction
system.cpu.op_class_0::IntDiv                       0      0.00%     49.99% # Class of committed instruction
system.cpu.op_class_0::FloatAdd                     0      0.00%     49.99% # Class of committed instruction
system.cpu.op_class_0::FloatCmp                     0      0.00%     49.99% # Class of committed instruction
system.cpu.op_class_0::FloatCvt                     0      0.00%     49.99% # Class of committed instruction
system.cpu.op_class_0::FloatMult                    0      0.00%     49.99% # Class of committed instruction
system.cpu.op_class_0::FloatMultAcc                 0      0.00%     49.99% # Class of committed instruction
system.cpu.op_class_0::FloatDiv                     0      0.00%     49.99% # Class of committed instruction
system.cpu.op_class_0::FloatMisc                    0      0.00%     49.99% # Class of committed instruction
system.cpu.op_class_0::FloatSqrt                    0      0.00%     49.99% # Class of committed instruction
system.cpu.op_class_0::SimdAdd                      0      0.00%     49.99% # Class of committed instruction
system.cpu.op_class_0::SimdAddAcc                   0      0.00%     49.99% # Class of committed instruction
system.cpu.op_class_0::SimdAlu                      0      0.00%     49.99% # Class of committed instruction
system.cpu.op_class_0::SimdCmp                      0      0.00%     49.99% # Class of committed instruction
system.cpu.op_class_0::SimdCvt                      0      0.00%     49.99% # Class of committed instruction
system.cpu.op_class_0::SimdMisc                     0      0.00%     49.99% # Class of committed instruction
system.cpu.op_class_0::SimdMult                     0      0.00%     49.99% # Class of committed instruction
system.cpu.op_class_0::SimdMultAcc                  0      0.00%     49.99% # Class of committed instruction
system.cpu.op_class_0::SimdShift                    0      0.00%     49.99% # Class of committed instruction
system.cpu.op_class_0::SimdShiftAcc                 0      0.00%     49.99% # Class of committed instruction
system.cpu.op_class_0::SimdDiv                      0      0.00%     49.99% # Class of committed instruction
system.cpu.op_class_0::SimdSqrt                     0      0.00%     49.99% # Class of committed instruction
system.cpu.op_class_0::SimdFloatAdd                 0      0.00%     49.99% # Class of committed instruction
system.cpu.op_class_0::SimdFloatAlu                 0      0.00%     49.99% # Class of committed instruction
system.cpu.op_class_0::SimdFloatCmp                 2      0.00%     49.99% # Class of committed instruction
system.cpu.op_class_0::SimdFloatCvt                 0      0.00%     49.99% # Class of committed instruction
system.cpu.op_class_0::SimdFloatDiv                 0      0.00%     49.99% # Class of committed instruction
system.cpu.op_class_0::SimdFloatMisc               22      0.00%     49.99% # Class of committed instruction
system.cpu.op_class_0::SimdFloatMult                0      0.00%     49.99% # Class of committed instruction
system.cpu.op_class_0::SimdFloatMultAcc             0      0.00%     49.99% # Class of committed instruction
system.cpu.op_class_0::SimdFloatSqrt                0      0.00%     49.99% # Class of committed instruction
system.cpu.op_class_0::SimdReduceAdd                0      0.00%     49.99% # Class of committed instruction
system.cpu.op_class_0::SimdReduceAlu                0      0.00%     49.99% # Class of committed instruction
system.cpu.op_class_0::SimdReduceCmp                0      0.00%     49.99% # Class of committed instruction
system.cpu.op_class_0::SimdFloatReduceAdd            0      0.00%     49.99% # Class of committed instruction
system.cpu.op_class_0::SimdFloatReduceCmp            0      0.00%     49.99% # Class of committed instruction
system.cpu.op_class_0::SimdAes                      0      0.00%     49.99% # Class of committed instruction
system.cpu.op_class_0::SimdAesMix                   0      0.00%     49.99% # Class of committed instruction
system.cpu.op_class_0::SimdSha1Hash                 0      0.00%     49.99% # Class of committed instruction
system.cpu.op_class_0::SimdSha1Hash2                0      0.00%     49.99% # Class of committed instruction
system.cpu.op_class_0::SimdSha256Hash               0      0.00%     49.99% # Class of committed instruction
system.cpu.op_class_0::SimdSha256Hash2              0      0.00%     49.99% # Class of committed instruction
system.cpu.op_class_0::SimdShaSigma2                0      0.00%     49.99% # Class of committed instruction
system.cpu.op_class_0::SimdShaSigma3                0      0.00%     49.99% # Class of committed instruction
system.cpu.op_class_0::SimdPredAlu                  0      0.00%     49.99% # Class of committed instruction
system.cpu.op_class_0::MemRead               36892300     36.89%     86.88% # Class of committed instruction
system.cpu.op_class_0::MemWrite              13115893     13.12%    100.00% # Class of committed instruction
system.cpu.op_class_0::FloatMemRead                 0      0.00%    100.00% # Class of committed instruction
system.cpu.op_class_0::FloatMemWrite                0      0.00%    100.00% # Class of committed instruction
system.cpu.op_class_0::IprAccess                    0      0.00%    100.00% # Class of committed instruction
system.cpu.op_class_0::InstPrefetch                 0      0.00%    100.00% # Class of committed instruction
system.cpu.op_class_0::total                100003638                       # Class of committed instruction
system.cpu.tickCycles                       121774401                       # Number of cycles that the object actually ticked
system.cpu.workload.numSyscalls                    18                       # Number of system calls
system.membus.snoop_filter.hit_multi_requests            0                       # Number of requests hitting in the snoop filter with multiple (>1) holders of the requested data.
system.membus.snoop_filter.hit_multi_snoops            0                       # Number of snoops hitting in the snoop filter with multiple (>1) holders of the requested data.
system.membus.snoop_filter.hit_single_requests      2958755                       # Number of requests hitting in the snoop filter with a single holder of the requested data.
system.membus.snoop_filter.hit_single_snoops            0                       # Number of snoops hitting in the snoop filter with a single holder of the requested data.
system.membus.snoop_filter.tot_requests       5934672                       # Total number of requests made to the snoop filter.
system.membus.snoop_filter.tot_snoops               0                       # Total number of snoops made to the snoop filter.
system.tol2bus.snoop_filter.hit_multi_requests           25                       # Number of requests hitting in the snoop filter with multiple (>1) holders of the requested data.
system.tol2bus.snoop_filter.hit_multi_snoops            1                       # Number of snoops hitting in the snoop filter with multiple (>1) holders of the requested data.
system.tol2bus.snoop_filter.hit_single_requests      2974143                       # Number of requests hitting in the snoop filter with a single holder of the requested data.
system.tol2bus.snoop_filter.hit_single_snoops          777                       # Number of snoops hitting in the snoop filter with a single holder of the requested data.
system.tol2bus.snoop_filter.tot_requests      5950086                       # Total number of requests made to the snoop filter.
system.tol2bus.snoop_filter.tot_snoops            778                       # Total number of snoops made to the snoop filter.
system.clk_domain.clock                          1000                       # Clock period in ticks
system.cpu.branchPred.lookups                  606239                       # Number of BP lookups
system.cpu.branchPred.condPredicted            604234                       # Number of conditional branches predicted
system.cpu.branchPred.condIncorrect               840                       # Number of conditional branches incorrect
system.cpu.branchPred.BTBLookups               602298                       # Number of BTB lookups
system.cpu.branchPred.BTBHits                  601363                       # Number of BTB hits
system.cpu.branchPred.BTBHitPct             99.844761                       # BTB Hit Percentage
system.cpu.branchPred.RASUsed                     564                       # Number of times the RAS was used to get a target.
system.cpu.branchPred.RASIncorrect                  0                       # Number of incorrect RAS predictions.
system.cpu.branchPred.indirectLookups             365                       # Number of indirect predictor lookups.
system.cpu.branchPred.indirectHits                173                       # Number of indirect target hits.
system.cpu.branchPred.indirectMisses              192                       # Number of indirect misses.
system.cpu.branchPred.indirectMispredicted          103                       # Number of mispredicted indirect branches.
system.cpu.dcache.demand_hits::.cpu.data     42845198                       # number of demand (read+write) hits
system.cpu.dcache.demand_hits::total         42845198                       # number of demand (read+write) hits
system.cpu.dcache.overall_hits::.cpu.data     42845228                       # number of overall hits
system.cpu.dcache.overall_hits::total        42845228                       # number of overall hits
system.cpu.dcache.demand_misses::.cpu.data      5950099                       # number of demand (read+write) misses
system.cpu.dcache.demand_misses::total        5950099                       # number of demand (read+write) misses
system.cpu.dcache.overall_misses::.cpu.data      5950121                       # number of overall misses
system.cpu.dcache.overall_misses::total       5950121                       # number of overall misses
system.cpu.dcache.demand_miss_latency::.cpu.data 455382698500                       # number of demand (read+write) miss cycles
system.cpu.dcache.demand_miss_latency::total 455382698500                       # number of demand (read+write) miss cycles
system.cpu.dcache.overall_miss_latency::.cpu.data 455382698500                       # number of overall miss cycles
system.cpu.dcache.overall_miss_latency::total 455382698500                       # number of overall miss cycles
system.cpu.dcache.demand_accesses::.cpu.data     48795297                       # number of demand (read+write) accesses
system.cpu.dcache.demand_accesses::total     48795297                       # number of demand (read+write) accesses
system.cpu.dcache.overall_accesses::.cpu.data     48795349                       # number of overall (read+write) accesses
system.cpu.dcache.overall_accesses::total     48795349                       # number of overall (read+write) accesses
system.cpu.dcache.demand_miss_rate::.cpu.data     0.121940                       # miss rate for demand accesses
system.cpu.dcache.demand_miss_rate::total     0.121940                       # miss rate for demand accesses
system.cpu.dcache.overall_miss_rate::.cpu.data     0.121940                       # miss rate for overall accesses
system.cpu.dcache.overall_miss_rate::total     0.121940                       # miss rate for overall accesses
system.cpu.dcache.demand_avg_miss_latency::.cpu.data 76533.633894                       # average overall miss latency
system.cpu.dcache.demand_avg_miss_latency::total 76533.633894                       # average overall miss latency
system.cpu.dcache.overall_avg_miss_latency::.cpu.data 76533.350918                       # average overall miss latency
system.cpu.dcache.overall_avg_miss_latency::total 76533.350918                       # average overall miss latency
system.cpu.dcache.blocked_cycles::no_mshrs            0                       # number of cycles access was blocked
system.cpu.dcache.blocked_cycles::no_targets            0                       # number of cycles access was blocked
system.cpu.dcache.blocked::no_mshrs                 0                       # number of cycles access was blocked
system.cpu.dcache.blocked::no_targets               0                       # number of cycles access was blocked
system.cpu.dcache.avg_blocked_cycles::no_mshrs          nan                       # average number of cycles each access was blocked
system.cpu.dcache.avg_blocked_cycles::no_targets          nan                       # average number of cycles each access was blocked
system.cpu.dcache.writebacks::.writebacks      2973991                       # number of writebacks
system.cpu.dcache.writebacks::total           2973991                       # number of writebacks
system.cpu.dcache.demand_mshr_hits::.cpu.data      2974955                       # number of demand (read+write) MSHR hits
system.cpu.dcache.demand_mshr_hits::total      2974955                       # number of demand (read+write) MSHR hits
system.cpu.dcache.overall_mshr_hits::.cpu.data      2974955                       # number of overall MSHR hits
system.cpu.dcache.overall_mshr_hits::total      2974955                       # number of overall MSHR hits
system.cpu.dcache.demand_mshr_misses::.cpu.data      2975144                       # number of demand (read+write) MSHR misses
system.cpu.dcache.demand_mshr_misses::total      2975144                       # number of demand (read+write) MSHR misses
system.cpu.dcache.overall_mshr_misses::.cpu.data      2975166                       # number of overall MSHR misses
system.cpu.dcache.overall_mshr_misses::total      2975166                       # number of overall MSHR misses
system.cpu.dcache.demand_mshr_miss_latency::.cpu.data 233358120000                       # number of demand (read+write) MSHR miss cycles
system.cpu.dcache.demand_mshr_miss_latency::total 233358120000                       # number of demand (read+write) MSHR miss cycles
system.cpu.dcache.overall_mshr_miss_latency::.cpu.data 233360042000                       # number of overall MSHR miss cycles
system.cpu.dcache.overall_mshr_miss_latency::total 233360042000                       # number of overall MSHR miss cycles
system.cpu.dcache.demand_mshr_miss_rate::.cpu.data     0.060972                       # mshr miss rate for demand accesses
system.cpu.dcache.demand_mshr_miss_rate::total     0.060972                       # mshr miss rate for demand accesses
system.cpu.dcache.overall_mshr_miss_rate::.cpu.data     0.060972                       # mshr miss rate for overall accesses
system.cpu.dcache.overall_mshr_miss_rate::total     0.060972                       # mshr miss rate for overall accesses
system.cpu.dcache.demand_avg_mshr_miss_latency::.cpu.data 78435.907640                       # average overall mshr miss latency
system.cpu.dcache.demand_avg_mshr_miss_latency::total 78435.907640                       # average overall mshr miss latency
system.cpu.dcache.overall_avg_mshr_miss_latency::.cpu.data 78435.973657                       # average overall mshr miss latency
system.cpu.dcache.overall_avg_mshr_miss_latency::total 78435.973657                       # average overall mshr miss latency
system.cpu.dcache.replacements                2974142                       # number of replacements
system.cpu.dcache.ReadReq_hits::.cpu.data     35702568                       # number of ReadReq hits
system.cpu.dcache.ReadReq_hits::total        35702568                       # number of ReadReq hits
system.cpu.dcache.ReadReq_misses::.cpu.data          160                       # number of ReadReq misses
system.cpu.dcache.ReadReq_misses::total           160                       # number of ReadReq misses
system.cpu.dcache.ReadReq_miss_latency::.cpu.data     12950000                       # number of ReadReq miss cycles
system.cpu.dcache.ReadReq_miss_latency::total     12950000                       # number of ReadReq miss cycles
system.cpu.dcache.ReadReq_accesses::.cpu.data     35702728                       # number of ReadReq accesses(hits+misses)
system.cpu.dcache.ReadReq_accesses::total     35702728                       # number of ReadReq accesses(hits+misses)
system.cpu.dcache.ReadReq_miss_rate::.cpu.data     0.000004                       # miss rate for ReadReq accesses
system.cpu.dcache.ReadReq_miss_rate::total     0.000004                       # miss rate for ReadReq accesses
system.cpu.dcache.ReadReq_avg_miss_latency::.cpu.data 80937.500000                       # average ReadReq miss latency
system.cpu.dcache.ReadReq_avg_miss_latency::total 80937.500000                       # average ReadReq miss latency
system.cpu.dcache.ReadReq_mshr_hits::.cpu.data            6                       # number of ReadReq MSHR hits
system.cpu.dcache.ReadReq_mshr_hits::total            6                       # number of ReadReq MSHR hits
system.cpu.dcache.ReadReq_mshr_misses::.cpu.data          154                       # number of ReadReq MSHR misses
system.cpu.dcache.ReadReq_mshr_misses::total          154                       # number of ReadReq MSHR misses
system.cpu.dcache.ReadReq_mshr_miss_latency::.cpu.data     12285000                       # number of ReadReq MSHR miss cycles
system.cpu.dcache.ReadReq_mshr_miss_latency::total     12285000                       # number of ReadReq MSHR miss cycles
system.cpu.dcache.ReadReq_mshr_miss_rate::.cpu.data     0.000004                       # mshr miss rate for ReadReq accesses
system.cpu.dcache.ReadReq_mshr_miss_rate::total     0.000004                       # mshr miss rate for ReadReq accesses
system.cpu.dcache.ReadReq_avg_mshr_miss_latency::.cpu.data 79772.727273                       # average ReadReq mshr miss latency
system.cpu.dcache.ReadReq_avg_mshr_miss_latency::total 79772.727273                       # average ReadReq mshr miss latency
system.cpu.dcache.WriteReq_hits::.cpu.data      7142630                       # number of WriteReq hits
system.cpu.dcache.WriteReq_hits::total        7142630                       # number of WriteReq hits
system.cpu.dcache.WriteReq_misses::.cpu.data      5949939                       # number of WriteReq misses
system.cpu.dcache.WriteReq_misses::total      5949939                       # number of WriteReq misses
system.cpu.dcache.WriteReq_miss_latency::.cpu.data 455369748500                       # number of WriteReq miss cycles
system.cpu.dcache.WriteReq_miss_latency::total 455369748500                       # number of WriteReq miss cycles
system.cpu.dcache.WriteReq_accesses::.cpu.data     13092569                       # number of WriteReq accesses(hits+misses)
system.cpu.dcache.WriteReq_accesses::total     13092569                       # number of WriteReq accesses(hits+misses)
system.cpu.dcache.WriteReq_miss_rate::.cpu.data     0.454452                       # miss rate for WriteReq accesses
system.cpu.dcache.WriteReq_miss_rate::total     0.454452                       # miss rate for WriteReq accesses
system.cpu.dcache.WriteReq_avg_miss_latency::.cpu.data 76533.515470                       # average WriteReq miss latency
system.cpu.dcache.WriteReq_avg_miss_latency::total 76533.515470                       # average WriteReq miss latency
system.cpu.dcache.WriteReq_mshr_hits::.cpu.data      2974949                       # number of WriteReq MSHR hits
system.cpu.dcache.WriteReq_mshr_hits::total      2974949                       # number of WriteReq MSHR hits
system.cpu.dcache.WriteReq_mshr_misses::.cpu.data      2974990                       # number of WriteReq MSHR misses
system.cpu.dcache.WriteReq_mshr_misses::total      2974990                       # number of WriteReq MSHR misses
system.cpu.dcache.WriteReq_mshr_miss_latency::.cpu.data 233345835000                       # number of WriteReq MSHR miss cycles
system.cpu.dcache.WriteReq_mshr_miss_latency::total 233345835000                       # number of WriteReq MSHR miss cycles
system.cpu.dcache.WriteReq_mshr_miss_rate::.cpu.data     0.227227                       # mshr miss rate for WriteReq accesses
system.cpu.dcache.WriteReq_mshr_miss_rate::total     0.227227                       # mshr miss rate for WriteReq accesses
system.cpu.dcache.WriteReq_avg_mshr_miss_latency::.cpu.data 78435.838440                       # average WriteReq mshr miss latency
system.cpu.dcache.WriteReq_avg_mshr_miss_latency::total 78435.838440                       # average WriteReq mshr miss latency
system.cpu.dcache.SoftPFReq_hits::.cpu.data           30                       # number of SoftPFReq hits
system.cpu.dcache.SoftPFReq_hits::total            30                       # number of SoftPFReq hits
system.cpu.dcache.SoftPFReq_misses::.cpu.data           22                       # number of SoftPFReq misses
system.cpu.dcache.SoftPFReq_misses::total           22                       # number of SoftPFReq misses
system.cpu.dcache.SoftPFReq_accesses::.cpu.data           52                       # number of SoftPFReq accesses(hits+misses)
system.cpu.dcache.SoftPFReq_accesses::total           52                       # number of SoftPFReq accesses(hits+misses)
system.cpu.dcache.SoftPFReq_miss_rate::.cpu.data     0.423077                       # miss rate for SoftPFReq accesses
system.cpu.dcache.SoftPFReq_miss_rate::total     0.423077                       # miss rate for SoftPFReq accesses
system.cpu.dcache.SoftPFReq_mshr_misses::.cpu.data           22                       # number of SoftPFReq MSHR misses
system.cpu.dcache.SoftPFReq_mshr_misses::total           22                       # number of SoftPFReq MSHR misses
system.cpu.dcache.SoftPFReq_mshr_miss_latency::.cpu.data      1922000                       # number of SoftPFReq MSHR miss cycles
system.cpu.dcache.SoftPFReq_mshr_miss_latency::total      1922000                       # number of SoftPFReq MSHR miss cycles
system.cpu.dcache.SoftPFReq_mshr_miss_rate::.cpu.data     0.423077                       # mshr miss rate for SoftPFReq accesses
system.cpu.dcache.SoftPFReq_mshr_miss_rate::total     0.423077                       # mshr miss rate for SoftPFReq accesses
system.cpu.dcache.SoftPFReq_avg_mshr_miss_latency::.cpu.data 87363.636364                       # average SoftPFReq mshr miss latency
system.cpu.dcache.SoftPFReq_avg_mshr_miss_latency::total 87363.636364                       # average SoftPFReq mshr miss latency
system.cpu.dcache.LoadLockedReq_hits::.cpu.data           13                       # number of LoadLockedReq hits
system.cpu.dcache.LoadLockedReq_hits::total           13                       # number of LoadLockedReq hits
system.cpu.dcache.LoadLockedReq_misses::.cpu.data            1                       # number of LoadLockedReq misses
system.cpu.dcache.LoadLockedReq_misses::total            1                       # number of LoadLockedReq misses
system.cpu.dcache.LoadLockedReq_miss_latency::.cpu.data        72500                       # number of LoadLockedReq miss cycles
system.cpu.dcache.LoadLockedReq_miss_latency::total        72500                       # number of LoadLockedReq miss cycles
system.cpu.dcache.LoadLockedReq_accesses::.cpu.data           14                       # number of LoadLockedReq accesses(hits+misses)
system.cpu.dcache.LoadLockedReq_accesses::total           14                       # number of LoadLockedReq accesses(hits+misses)
system.cpu.dcache.LoadLockedReq_miss_rate::.cpu.data     0.071429                       # miss rate for LoadLockedReq accesses
system.cpu.dcache.LoadLockedReq_miss_rate::total     0.071429                       # miss rate for LoadLockedReq accesses
system.cpu.dcache.LoadLockedReq_avg_miss_latency::.cpu.data        72500                       # average LoadLockedReq miss latency
system.cpu.dcache.LoadLockedReq_avg_miss_latency::total        72500                       # average LoadLockedReq miss latency
system.cpu.dcache.LoadLockedReq_mshr_misses::.cpu.data            1                       # number of LoadLockedReq MSHR misses
system.cpu.dcache.LoadLockedReq_mshr_misses::total            1                       # number of LoadLockedReq MSHR misses
system.cpu.dcache.LoadLockedReq_mshr_miss_latency::.cpu.data        71500                       # number of LoadLockedReq MSHR miss cycles
system.cpu.dcache.LoadLockedReq_mshr_miss_latency::total        71500                       # number of LoadLockedReq MSHR miss cycles
system.cpu.dcache.LoadLockedReq_mshr_miss_rate::.cpu.data     0.071429                       # mshr miss rate for LoadLockedReq accesses
system.cpu.dcache.LoadLockedReq_mshr_miss_rate::total     0.071429                       # mshr miss rate for LoadLockedReq accesses
system.cpu.dcache.LoadLockedReq_avg_mshr_miss_latency::.cpu.data        71500                       # average LoadLockedReq mshr miss latency
system.cpu.dcache.LoadLockedReq_avg_mshr_miss_latency::total        71500                       # average LoadLockedReq mshr miss latency
system.cpu.dcache.StoreCondReq_hits::.cpu.data           14                       # number of StoreCondReq hits
system.cpu.dcache.StoreCondReq_hits::total           14                       # number of StoreCondReq hits
system.cpu.dcache.StoreCondReq_accesses::.cpu.data           14                       # number of StoreCondReq accesses(hits+misses)
system.cpu.dcache.StoreCondReq_accesses::total           14                       # number of StoreCondReq accesses(hits+misses)
system.cpu.dcache.power_state.pwrStateResidencyTicks::UNDEFINED 280510980500                       # Cumulative time (in ticks) in various power states
system.cpu.dcache.tags.tagsinuse          1023.673246                       # Cycle average of tags in use
system.cpu.dcache.tags.total_refs            45820421                       # Total number of references to valid blocks.
system.cpu.dcache.tags.sampled_refs           2975166                       # Sample count of references to valid blocks.
system.cpu.dcache.tags.avg_refs             15.400963                       # Average number of references to valid blocks.
system.cpu.dcache.tags.warmup_cycle            176500                       # Cycle when the warmup percentage was hit.
system.cpu.dcache.tags.occ_blocks::.cpu.data  1023.673246                       # Average occupied blocks per requestor
system.cpu.dcache.tags.occ_percent::.cpu.data     0.999681                       # Average percentage of cache occupancy
system.cpu.dcache.tags.occ_percent::total     0.999681                       # Average percentage of cache occupancy
system.cpu.dcache.tags.occ_task_id_blocks::1024         1024                       # Occupied blocks per task id
system.cpu.dcache.tags.age_task_id_blocks_1024::0          106                       # Occupied blocks per task id
system.cpu.dcache.tags.age_task_id_blocks_1024::1          916                       # Occupied blocks per task id
system.cpu.dcache.tags.age_task_id_blocks_1024::4            2                       # Occupied blocks per task id
system.cpu.dcache.tags.occ_task_id_percent::1024            1                       # Percentage of cache occupancy per task id
system.cpu.dcache.tags.tag_accesses         783701198                       # Number of tag accesses
system.cpu.dcache.tags.data_accesses        783701198                       # Number of data accesses
system.cpu.dcache.tags.power_state.pwrStateResidencyTicks::UNDEFINED 280510980500                       # Cumulative time (in ticks) in various power states
system.cpu.dtb.instHits                             0                       # ITB inst hits
system.cpu.dtb.instMisses                           0                       # ITB inst misses
system.cpu.dtb.readHits                             0                       # DTB read hits
system.cpu.dtb.readMisses                           0                       # DTB read misses
system.cpu.dtb.writeHits                            0                       # DTB write hits
system.cpu.dtb.writeMisses                          0                       # DTB write misses
system.cpu.dtb.inserts                              0                       # Number of times an entry is inserted into the TLB
system.cpu.dtb.flushTlb                             0                       # Number of times complete TLB was flushed
system.cpu.dtb.flushTlbMva                          0                       # Number of times TLB was flushed by MVA
system.cpu.dtb.flushTlbMvaAsid                      0                       # Number of times TLB was flushed by MVA & ASID
system.cpu.dtb.flushTlbAsid                         0                       # Number of times TLB was flushed by ASID
system.cpu.dtb.flushedEntries                       0                       # Number of entries that have been flushed from TLB
system.cpu.dtb.alignFaults                          0                       # Number of TLB faults due to alignment restrictions
system.cpu.dtb.prefetchFaults                       0                       # Number of TLB faults due to prefetch
system.cpu.dtb.domainFaults                         0                       # Number of TLB faults due to domain restrictions
system.cpu.dtb.permsFaults                          0                       # Number of TLB faults due to permissions restrictions
system.cpu.dtb.readAccesses                         0                       # DTB read accesses
system.cpu.dtb.writeAccesses                        0                       # DTB write accesses
system.cpu.dtb.instAccesses                         0                       # ITB inst accesses
system.cpu.dtb.hits                                 0                       # Total TLB (inst and data) hits
system.cpu.dtb.misses                               0                       # Total TLB (inst and data) misses
system.cpu.dtb.accesses                             0                       # Total TLB (inst and data) accesses
system.cpu.dtb.stage2_mmu.stage2_tlb.instHits            0                       # ITB inst hits
system.cpu.dtb.stage2_mmu.stage2_tlb.instMisses            0                       # ITB inst misses
system.cpu.dtb.stage2_mmu.stage2_tlb.readHits            0                       # DTB read hits
system.cpu.dtb.stage2_mmu.stage2_tlb.readMisses            0                       # DTB read misses
system.cpu.dtb.stage2_mmu.stage2_tlb.writeHits            0                       # DTB write hits
system.cpu.dtb.stage2_mmu.stage2_tlb.writeMisses            0                       # DTB write misses
system.cpu.dtb.stage2_mmu.stage2_tlb.inserts            0                       # Number of times an entry is inserted into the TLB
system.cpu.dtb.stage2_mmu.stage2_tlb.flushTlb            0                       # Number of times complete TLB was flushed
system.cpu.dtb.stage2_mmu.stage2_tlb.flushTlbMva            0                       # Number of times TLB was flushed by MVA
system.cpu.dtb.stage2_mmu.stage2_tlb.flushTlbMvaAsid            0                       # Number of times TLB was flushed by MVA & ASID
system.cpu.dtb.stage2_mmu.stage2_tlb.flushTlbAsid            0                       # Number of times TLB was flushed by ASID
system.cpu.dtb.stage2_mmu.stage2_tlb.flushedEntries            0                       # Number of entries that have been flushed from TLB
system.cpu.dtb.stage2_mmu.stage2_tlb.alignFaults            0                       # Number of TLB faults due to alignment restrictions
system.cpu.dtb.stage2_mmu.stage2_tlb.prefetchFaults            0                       # Number of TLB faults due to prefetch
system.cpu.dtb.stage2_mmu.stage2_tlb.domainFaults            0                       # Number of TLB faults due to domain restrictions
system.cpu.dtb.stage2_mmu.stage2_tlb.permsFaults            0                       # Number of TLB faults due to permissions restrictions
system.cpu.dtb.stage2_mmu.stage2_tlb.readAccesses            0                       # DTB read accesses
system.cpu.dtb.stage2_mmu.stage2_tlb.writeAccesses            0                       # DTB write accesses
system.cpu.dtb.stage2_mmu.stage2_tlb.instAccesses            0                       # ITB inst accesses
system.cpu.dtb.stage2_mmu.stage2_tlb.hits            0                       # Total TLB (inst and data) hits
system.cpu.dtb.stage2_mmu.stage2_tlb.misses            0                       # Total TLB (inst and data) misses
system.cpu.dtb.stage2_mmu.stage2_tlb.accesses            0                       # Total TLB (inst and data) accesses
system.cpu.dtb.stage2_mmu.stage2_tlb.walker.walks            0                       # Table walker walks requested
system.cpu.dtb.stage2_mmu.stage2_tlb.walker.requestOrigin_Requested::Data            0                       # Table walker requests started/completed, data/inst
system.cpu.dtb.stage2_mmu.stage2_tlb.walker.requestOrigin_Requested::Inst            0                       # Table walker requests started/completed, data/inst
system.cpu.dtb.stage2_mmu.stage2_tlb.walker.requestOrigin_Requested::total            0                       # Table walker requests started/completed, data/inst
system.cpu.dtb.stage2_mmu.stage2_tlb.walker.requestOrigin_Completed::Data            0                       # Table walker requests started/completed, data/inst
system.cpu.dtb.stage2_mmu.stage2_tlb.walker.requestOrigin_Completed::Inst            0                       # Table walker requests started/completed, data/inst
system.cpu.dtb.stage2_mmu.stage2_tlb.walker.requestOrigin_Completed::total            0                       # Table walker requests started/completed, data/inst
system.cpu.dtb.stage2_mmu.stage2_tlb.walker.requestOrigin::total            0                       # Table walker requests started/completed, data/inst
system.cpu.dtb.stage2_mmu.stage2_tlb.walker.power_state.pwrStateResidencyTicks::UNDEFINED 280510980500                       # Cumulative time (in ticks) in various power states
system.cpu.dtb.walker.walks                         0                       # Table walker walks requested
system.cpu.dtb.walker.requestOrigin_Requested::Data            0                       # Table walker requests started/completed, data/inst
system.cpu.dtb.walker.requestOrigin_Requested::Inst            0                       # Table walker requests started/completed, data/inst
system.cpu.dtb.walker.requestOrigin_Requested::total            0                       # Table walker requests started/completed, data/inst
system.cpu.dtb.walker.requestOrigin_Completed::Data            0                       # Table walker requests started/completed, data/inst
system.cpu.dtb.walker.requestOrigin_Completed::Inst            0                       # Table walker requests started/completed, data/inst
system.cpu.dtb.walker.requestOrigin_Completed::total            0                       # Table walker requests started/completed, data/inst
system.cpu.dtb.walker.requestOrigin::total            0                       # Table walker requests started/completed, data/inst
system.cpu.dtb.walker.power_state.pwrStateResidencyTicks::UNDEFINED 280510980500                       # Cumulative time (in ticks) in various power states
system.cpu.fetch2.intInstructions            49664415                       # Number of integer instructions successfully decoded
system.cpu.fetch2.fpInstructions                    0                       # Number of floating point instructions successfully decoded
system.cpu.fetch2.vecInstructions                   0                       # Number of SIMD instructions successfully decoded
system.cpu.fetch2.loadInstructions           37087487                       # Number of memory load instructions successfully decoded
system.cpu.fetch2.storeInstructions          13161047                       # Number of memory store instructions successfully decoded
system.cpu.fetch2.amoInstructions                   0                       # Number of memory atomic instructions successfully decoded
system.cpu.icache.demand_hits::.cpu.inst      9635083                       # number of demand (read+write) hits
system.cpu.icache.demand_hits::total          9635083                       # number of demand (read+write) hits
system.cpu.icache.overall_hits::.cpu.inst      9635083                       # number of overall hits
system.cpu.icache.overall_hits::total         9635083                       # number of overall hits
system.cpu.icache.demand_misses::.cpu.inst          777                       # number of demand (read+write) misses
system.cpu.icache.demand_misses::total            777                       # number of demand (read+write) misses
system.cpu.icache.overall_misses::.cpu.inst          777                       # number of overall misses
system.cpu.icache.overall_misses::total           777                       # number of overall misses
system.cpu.icache.demand_miss_latency::.cpu.inst     59643500                       # number of demand (read+write) miss cycles
system.cpu.icache.demand_miss_latency::total     59643500                       # number of demand (read+write) miss cycles
system.cpu.icache.overall_miss_latency::.cpu.inst     59643500                       # number of overall miss cycles
system.cpu.icache.overall_miss_latency::total     59643500                       # number of overall miss cycles
system.cpu.icache.demand_accesses::.cpu.inst      9635860                       # number of demand (read+write) accesses
system.cpu.icache.demand_accesses::total      9635860                       # number of demand (read+write) accesses
system.cpu.icache.overall_accesses::.cpu.inst      9635860                       # number of overall (read+write) accesses
system.cpu.icache.overall_accesses::total      9635860                       # number of overall (read+write) accesses
system.cpu.icache.demand_miss_rate::.cpu.inst     0.000081                       # miss rate for demand accesses
system.cpu.icache.demand_miss_rate::total     0.000081                       # miss rate for demand accesses
system.cpu.icache.overall_miss_rate::.cpu.inst     0.000081                       # miss rate for overall accesses
system.cpu.icache.overall_miss_rate::total     0.000081                       # miss rate for overall accesses
system.cpu.icache.demand_avg_miss_latency::.cpu.inst 76761.261261                       # average overall miss latency
system.cpu.icache.demand_avg_miss_latency::total 76761.261261                       # average overall miss latency
system.cpu.icache.overall_avg_miss_latency::.cpu.inst 76761.261261                       # average overall miss latency
system.cpu.icache.overall_avg_miss_latency::total 76761.261261                       # average overall miss latency
system.cpu.icache.blocked_cycles::no_mshrs            0                       # number of cycles access was blocked
system.cpu.icache.blocked_cycles::no_targets            0                       # number of cycles access was blocked
system.cpu.icache.blocked::no_mshrs                 0                       # number of cycles access was blocked
system.cpu.icache.blocked::no_targets               0                       # number of cycles access was blocked
system.cpu.icache.avg_blocked_cycles::no_mshrs          nan                       # average number of cycles each access was blocked
system.cpu.icache.avg_blocked_cycles::no_targets          nan                       # average number of cycles each access was blocked
system.cpu.icache.demand_mshr_misses::.cpu.inst          777                       # number of demand (read+write) MSHR misses
system.cpu.icache.demand_mshr_misses::total          777                       # number of demand (read+write) MSHR misses
system.cpu.icache.overall_mshr_misses::.cpu.inst          777                       # number of overall MSHR misses
system.cpu.icache.overall_mshr_misses::total          777                       # number of overall MSHR misses
system.cpu.icache.demand_mshr_miss_latency::.cpu.inst     58866500                       # number of demand (read+write) MSHR miss cycles
system.cpu.icache.demand_mshr_miss_latency::total     58866500                       # number of demand (read+write) MSHR miss cycles
system.cpu.icache.overall_mshr_miss_latency::.cpu.inst     58866500                       # number of overall MSHR miss cycles
system.cpu.icache.overall_mshr_miss_latency::total     58866500                       # number of overall MSHR miss cycles
system.cpu.icache.demand_mshr_miss_rate::.cpu.inst     0.000081                       # mshr miss rate for demand accesses
system.cpu.icache.demand_mshr_miss_rate::total     0.000081                       # mshr miss rate for demand accesses
system.cpu.icache.overall_mshr_miss_rate::.cpu.inst     0.000081                       # mshr miss rate for overall accesses
system.cpu.icache.overall_mshr_miss_rate::total     0.000081                       # mshr miss rate for overall accesses
system.cpu.icache.demand_avg_mshr_miss_latency::.cpu.inst 75761.261261                       # average overall mshr miss latency
system.cpu.icache.demand_avg_mshr_miss_latency::total 75761.261261                       # average overall mshr miss latency
system.cpu.icache.overall_avg_mshr_miss_latency::.cpu.inst 75761.261261                       # average overall mshr miss latency
system.cpu.icache.overall_avg_mshr_miss_latency::total 75761.261261                       # average overall mshr miss latency
system.cpu.icache.replacements                      0                       # number of replacements
system.cpu.icache.ReadReq_hits::.cpu.inst      9635083                       # number of ReadReq hits
system.cpu.icache.ReadReq_hits::total         9635083                       # number of ReadReq hits
system.cpu.icache.ReadReq_misses::.cpu.inst          777                       # number of ReadReq misses
system.cpu.icache.ReadReq_misses::total           777                       # number of ReadReq misses
system.cpu.icache.ReadReq_miss_latency::.cpu.inst     59643500                       # number of ReadReq miss cycles
system.cpu.icache.ReadReq_miss_latency::total     59643500                       # number of ReadReq miss cycles
system.cpu.icache.ReadReq_accesses::.cpu.inst      9635860                       # number of ReadReq accesses(hits+misses)
system.cpu.icache.ReadReq_accesses::total      9635860                       # number of ReadReq accesses(hits+misses)
system.cpu.icache.ReadReq_miss_rate::.cpu.inst     0.000081                       # miss rate for ReadReq accesses
system.cpu.icache.ReadReq_miss_rate::total     0.000081                       # miss rate for ReadReq accesses
system.cpu.icache.ReadReq_avg_miss_latency::.cpu.inst 76761.261261                       # average ReadReq miss latency
system.cpu.icache.ReadReq_avg_miss_latency::total 76761.261261                       # average ReadReq miss latency
system.cpu.icache.ReadReq_mshr_misses::.cpu.inst          777                       # number of ReadReq MSHR misses
system.cpu.icache.ReadReq_mshr_misses::total          777                       # number of ReadReq MSHR misses
system.cpu.icache.ReadReq_mshr_miss_latency::.cpu.inst     58866500                       # number of ReadReq MSHR miss cycles
system.cpu.icache.ReadReq_mshr_miss_latency::total     58866500                       # number of ReadReq MSHR miss cycles
system.cpu.icache.ReadReq_mshr_miss_rate::.cpu.inst     0.000081                       # mshr miss rate for ReadReq accesses
system.cpu.icache.ReadReq_mshr_miss_rate::total     0.000081                       # mshr miss rate for ReadReq accesses
system.cpu.icache.ReadReq_avg_mshr_miss_latency::.cpu.inst 75761.261261                       # average ReadReq mshr miss latency
system.cpu.icache.ReadReq_avg_mshr_miss_latency::total 75761.261261                       # average ReadReq mshr miss latency
system.cpu.icache.power_state.pwrStateResidencyTicks::UNDEFINED 280510980500                       # Cumulative time (in ticks) in various power states
system.cpu.icache.tags.tagsinuse           776.889598                       # Cycle average of tags in use
system.cpu.icache.tags.total_refs             9635860                       # Total number of references to valid blocks.
system.cpu.icache.tags.sampled_refs               777                       # Sample count of references to valid blocks.
system.cpu.icache.tags.avg_refs          12401.364221                       # Average number of references to valid blocks.
system.cpu.icache.tags.warmup_cycle             87500                       # Cycle when the warmup percentage was hit.
system.cpu.icache.tags.occ_blocks::.cpu.inst   776.889598                       # Average occupied blocks per requestor
system.cpu.icache.tags.occ_percent::.cpu.inst     0.379341                       # Average percentage of cache occupancy
system.cpu.icache.tags.occ_percent::total     0.379341                       # Average percentage of cache occupancy
system.cpu.icache.tags.occ_task_id_blocks::1024          777                       # Occupied blocks per task id
system.cpu.icache.tags.age_task_id_blocks_1024::4          777                       # Occupied blocks per task id
system.cpu.icache.tags.occ_task_id_percent::1024     0.379395                       # Percentage of cache occupancy per task id
system.cpu.icache.tags.tag_accesses         154174537                       # Number of tag accesses
system.cpu.icache.tags.data_accesses        154174537                       # Number of data accesses
system.cpu.icache.tags.power_state.pwrStateResidencyTicks::UNDEFINED 280510980500                       # Cumulative time (in ticks) in various power states
system.cpu.itb.instHits                             0                       # ITB inst hits
system.cpu.itb.instMisses                           0                       # ITB inst misses
system.cpu.itb.readHits                             0                       # DTB read hits
system.cpu.itb.readMisses                           0                       # DTB read misses
system.cpu.itb.writeHits                            0                       # DTB write hits
system.cpu.itb.writeMisses                          0                       # DTB write misses
system.cpu.itb.inserts                              0                       # Number of times an entry is inserted into the TLB
system.cpu.itb.flushTlb                             0                       # Number of times complete TLB was flushed
system.cpu.itb.flushTlbMva                          0                       # Number of times TLB was flushed by MVA
system.cpu.itb.flushTlbMvaAsid                      0                       # Number of times TLB was flushed by MVA & ASID
system.cpu.itb.flushTlbAsid                         0                       # Number of times TLB was flushed by ASID
system.cpu.itb.flushedEntries                       0                       # Number of entries that have been flushed from TLB
system.cpu.itb.alignFaults                          0                       # Number of TLB faults due to alignment restrictions
system.cpu.itb.prefetchFaults                       0                       # Number of TLB faults due to prefetch
system.cpu.itb.domainFaults                         0                       # Number of TLB faults due to domain restrictions
system.cpu.itb.permsFaults                          0                       # Number of TLB faults due to permissions restrictions
system.cpu.itb.readAccesses                         0                       # DTB read accesses
system.cpu.itb.writeAccesses                        0                       # DTB write accesses
system.cpu.itb.instAccesses                         0                       # ITB inst accesses
system.cpu.itb.hits                                 0                       # Total TLB (inst and data) hits
system.cpu.itb.misses                               0                       # Total TLB (inst and data) misses
system.cpu.itb.accesses                             0                       # Total TLB (inst and data) accesses
system.cpu.itb.stage2_mmu.stage2_tlb.instHits            0                       # ITB inst hits
system.cpu.itb.stage2_mmu.stage2_tlb.instMisses            0                       # ITB inst misses
system.cpu.itb.stage2_mmu.stage2_tlb.readHits            0                       # DTB read hits
system.cpu.itb.stage2_mmu.stage2_tlb.readMisses            0                       # DTB read misses
system.cpu.itb.stage2_mmu.stage2_tlb.writeHits            0                       # DTB write hits
system.cpu.itb.stage2_mmu.stage2_tlb.writeMisses            0                       # DTB write misses
system.cpu.itb.stage2_mmu.stage2_tlb.inserts            0                       # Number of times an entry is inserted into the TLB
system.cpu.itb.stage2_mmu.stage2_tlb.flushTlb            0                       # Number of times complete TLB was flushed
system.cpu.itb.stage2_mmu.stage2_tlb.flushTlbMva            0                       # Number of times TLB was flushed by MVA
system.cpu.itb.stage2_mmu.stage2_tlb.flushTlbMvaAsid            0                       # Number of times TLB was flushed by MVA & ASID
system.cpu.itb.stage2_mmu.stage2_tlb.flushTlbAsid            0                       # Number of times TLB was flushed by ASID
system.cpu.itb.stage2_mmu.stage2_tlb.flushedEntries            0                       # Number of entries that have been flushed from TLB
system.cpu.itb.stage2_mmu.stage2_tlb.alignFaults            0                       # Number of TLB faults due to alignment restrictions
system.cpu.itb.stage2_mmu.stage2_tlb.prefetchFaults            0                       # Number of TLB faults due to prefetch
system.cpu.itb.stage2_mmu.stage2_tlb.domainFaults            0                       # Number of TLB faults due to domain restrictions
system.cpu.itb.stage2_mmu.stage2_tlb.permsFaults            0                       # Number of TLB faults due to permissions restrictions
system.cpu.itb.stage2_mmu.stage2_tlb.readAccesses            0                       # DTB read accesses
system.cpu.itb.stage2_mmu.stage2_tlb.writeAccesses            0                       # DTB write accesses
system.cpu.itb.stage2_mmu.stage2_tlb.instAccesses            0                       # ITB inst accesses
system.cpu.itb.stage2_mmu.stage2_tlb.hits            0                       # Total TLB (inst and data) hits
system.cpu.itb.stage2_mmu.stage2_tlb.misses            0                       # Total TLB (inst and data) misses
system.cpu.itb.stage2_mmu.stage2_tlb.accesses            0                       # Total TLB (inst and data) accesses
system.cpu.itb.stage2_mmu.stage2_tlb.walker.walks            0                       # Table walker walks requested
system.cpu.itb.stage2_mmu.stage2_tlb.walker.requestOrigin_Requested::Data            0                       # Table walker requests started/completed, data/inst
system.cpu.itb.stage2_mmu.stage2_tlb.walker.requestOrigin_Requested::Inst            0                       # Table walker requests started/completed, data/inst
system.cpu.itb.stage2_mmu.stage2_tlb.walker.requestOrigin_Requested::total            0                       # Table walker requests started/completed, data/inst
system.cpu.itb.stage2_mmu.stage2_tlb.walker.requestOrigin_Completed::Data            0                       # Table walker requests started/completed, data/inst
system.cpu.itb.stage2_mmu.stage2_tlb.walker.requestOrigin_Completed::Inst            0                       # Table walker requests started/completed, data/inst
system.cpu.itb.stage2_mmu.stage2_tlb.walker.requestOrigin_Completed::total            0                       # Table walker requests started/completed, data/inst
system.cpu.itb.stage2_mmu.stage2_tlb.walker.requestOrigin::total            0                       # Table walker requests started/completed, data/inst
system.cpu.itb.stage2_mmu.stage2_tlb.walker.power_state.pwrStateResidencyTicks::UNDEFINED 280510980500                       # Cumulative time (in ticks) in various power states
system.cpu.itb.walker.walks                         0                       # Table walker walks requested
system.cpu.itb.walker.requestOrigin_Requested::Data            0                       # Table walker requests started/completed, data/inst
system.cpu.itb.walker.requestOrigin_Requested::Inst            0                       # Table walker requests started/completed, data/inst
system.cpu.itb.walker.requestOrigin_Requested::total            0                       # Table walker requests started/completed, data/inst
system.cpu.itb.walker.requestOrigin_Completed::Data            0                       # Table walker requests started/completed, data/inst
system.cpu.itb.walker.requestOrigin_Completed::Inst            0                       # Table walker requests started/completed, data/inst
system.cpu.itb.walker.requestOrigin_Completed::total            0                       # Table walker requests started/completed, data/inst
system.cpu.itb.walker.requestOrigin::total            0                       # Table walker requests started/completed, data/inst
system.cpu.itb.walker.power_state.pwrStateResidencyTicks::UNDEFINED 280510980500                       # Cumulative time (in ticks) in various power states
system.cpu.power_state.pwrStateResidencyTicks::ON 280510980500                       # Cumulative time (in ticks) in various power states
system.cpu.thread_0.numInsts                100000000                       # Number of Instructions committed
system.cpu.thread_0.numOps                  100003638                       # Number of Ops committed
system.cpu.thread_0.numMemRefs                      0                       # Number of Memory References
system.cpu_clk_domain.clock                       500                       # Clock period in ticks
system.cpu_voltage_domain.voltage                   1                       # Voltage in Volts
system.l2.demand_hits::.cpu.inst                   12                       # number of demand (read+write) hits
system.l2.demand_hits::.cpu.data                    9                       # number of demand (read+write) hits
system.l2.demand_hits::total                       21                       # number of demand (read+write) hits
system.l2.overall_hits::.cpu.inst                  12                       # number of overall hits
system.l2.overall_hits::.cpu.data                   9                       # number of overall hits
system.l2.overall_hits::total                      21                       # number of overall hits
system.l2.demand_misses::.cpu.inst                765                       # number of demand (read+write) misses
system.l2.demand_misses::.cpu.data            2975158                       # number of demand (read+write) misses
system.l2.demand_misses::total                2975923                       # number of demand (read+write) misses
system.l2.overall_misses::.cpu.inst               765                       # number of overall misses
system.l2.overall_misses::.cpu.data           2975158                       # number of overall misses
system.l2.overall_misses::total               2975923                       # number of overall misses
system.l2.demand_miss_latency::.cpu.inst     57562000                       # number of demand (read+write) miss cycles
system.l2.demand_miss_latency::.cpu.data 228897257500                       # number of demand (read+write) miss cycles
system.l2.demand_miss_latency::total     228954819500                       # number of demand (read+write) miss cycles
system.l2.overall_miss_latency::.cpu.inst     57562000                       # number of overall miss cycles
system.l2.overall_miss_latency::.cpu.data 228897257500                       # number of overall miss cycles
system.l2.overall_miss_latency::total    228954819500                       # number of overall miss cycles
system.l2.demand_accesses::.cpu.inst              777                       # number of demand (read+write) accesses
system.l2.demand_accesses::.cpu.data          2975167                       # number of demand (read+write) accesses
system.l2.demand_accesses::total              2975944                       # number of demand (read+write) accesses
system.l2.overall_accesses::.cpu.inst             777                       # number of overall (read+write) accesses
system.l2.overall_accesses::.cpu.data         2975167                       # number of overall (read+write) accesses
system.l2.overall_accesses::total             2975944                       # number of overall (read+write) accesses
system.l2.demand_miss_rate::.cpu.inst        0.984556                       # miss rate for demand accesses
system.l2.demand_miss_rate::.cpu.data        0.999997                       # miss rate for demand accesses
system.l2.demand_miss_rate::total            0.999993                       # miss rate for demand accesses
system.l2.overall_miss_rate::.cpu.inst       0.984556                       # miss rate for overall accesses
system.l2.overall_miss_rate::.cpu.data       0.999997                       # miss rate for overall accesses
system.l2.overall_miss_rate::total           0.999993                       # miss rate for overall accesses
system.l2.demand_avg_miss_latency::.cpu.inst 75244.444444                       # average overall miss latency
system.l2.demand_avg_miss_latency::.cpu.data 76936.168600                       # average overall miss latency
system.l2.demand_avg_miss_latency::total 76935.733720                       # average overall miss latency
system.l2.overall_avg_miss_latency::.cpu.inst 75244.444444                       # average overall miss latency
system.l2.overall_avg_miss_latency::.cpu.data 76936.168600                       # average overall miss latency
system.l2.overall_avg_miss_latency::total 76935.733720                       # average overall miss latency
system.l2.blocked_cycles::no_mshrs                  0                       # number of cycles access was blocked
system.l2.blocked_cycles::no_targets                0                       # number of cycles access was blocked
system.l2.blocked::no_mshrs                         0                       # number of cycles access was blocked
system.l2.blocked::no_targets                       0                       # number of cycles access was blocked
system.l2.avg_blocked_cycles::no_mshrs            nan                       # average number of cycles each access was blocked
system.l2.avg_blocked_cycles::no_targets          nan                       # average number of cycles each access was blocked
system.l2.writebacks::.writebacks             2958629                       # number of writebacks
system.l2.writebacks::total                   2958629                       # number of writebacks
system.l2.demand_mshr_hits::.cpu.inst               1                       # number of demand (read+write) MSHR hits
system.l2.demand_mshr_hits::.cpu.data               4                       # number of demand (read+write) MSHR hits
system.l2.demand_mshr_hits::total                   5                       # number of demand (read+write) MSHR hits
system.l2.overall_mshr_hits::.cpu.inst              1                       # number of overall MSHR hits
system.l2.overall_mshr_hits::.cpu.data              4                       # number of overall MSHR hits
system.l2.overall_mshr_hits::total                  5                       # number of overall MSHR hits
system.l2.demand_mshr_misses::.cpu.inst           764                       # number of demand (read+write) MSHR misses
system.l2.demand_mshr_misses::.cpu.data       2975154                       # number of demand (read+write) MSHR misses
system.l2.demand_mshr_misses::total           2975918                       # number of demand (read+write) MSHR misses
system.l2.overall_mshr_misses::.cpu.inst          764                       # number of overall MSHR misses
system.l2.overall_mshr_misses::.cpu.data      2975154                       # number of overall MSHR misses
system.l2.overall_mshr_misses::total          2975918                       # number of overall MSHR misses
system.l2.demand_mshr_miss_latency::.cpu.inst     49851500                       # number of demand (read+write) MSHR miss cycles
system.l2.demand_mshr_miss_latency::.cpu.data 199145460500                       # number of demand (read+write) MSHR miss cycles
system.l2.demand_mshr_miss_latency::total 199195312000                       # number of demand (read+write) MSHR miss cycles
system.l2.overall_mshr_miss_latency::.cpu.inst     49851500                       # number of overall MSHR miss cycles
system.l2.overall_mshr_miss_latency::.cpu.data 199145460500                       # number of overall MSHR miss cycles
system.l2.overall_mshr_miss_latency::total 199195312000                       # number of overall MSHR miss cycles
system.l2.demand_mshr_miss_rate::.cpu.inst     0.983269                       # mshr miss rate for demand accesses
system.l2.demand_mshr_miss_rate::.cpu.data     0.999996                       # mshr miss rate for demand accesses
system.l2.demand_mshr_miss_rate::total       0.999991                       # mshr miss rate for demand accesses
system.l2.overall_mshr_miss_rate::.cpu.inst     0.983269                       # mshr miss rate for overall accesses
system.l2.overall_mshr_miss_rate::.cpu.data     0.999996                       # mshr miss rate for overall accesses
system.l2.overall_mshr_miss_rate::total      0.999991                       # mshr miss rate for overall accesses
system.l2.demand_avg_mshr_miss_latency::.cpu.inst 65250.654450                       # average overall mshr miss latency
system.l2.demand_avg_mshr_miss_latency::.cpu.data 66936.185656                       # average overall mshr miss latency
system.l2.demand_avg_mshr_miss_latency::total 66935.752934                       # average overall mshr miss latency
system.l2.overall_avg_mshr_miss_latency::.cpu.inst 65250.654450                       # average overall mshr miss latency
system.l2.overall_avg_mshr_miss_latency::.cpu.data 66936.185656                       # average overall mshr miss latency
system.l2.overall_avg_mshr_miss_latency::total 66935.752934                       # average overall mshr miss latency
system.l2.replacements                        2959533                       # number of replacements
system.l2.WritebackDirty_hits::.writebacks      2973991                       # number of WritebackDirty hits
system.l2.WritebackDirty_hits::total          2973991                       # number of WritebackDirty hits
system.l2.WritebackDirty_accesses::.writebacks      2973991                       # number of WritebackDirty accesses(hits+misses)
system.l2.WritebackDirty_accesses::total      2973991                       # number of WritebackDirty accesses(hits+misses)
system.l2.ReadExReq_misses::.cpu.data         2974990                       # number of ReadExReq misses
system.l2.ReadExReq_misses::total             2974990                       # number of ReadExReq misses
system.l2.ReadExReq_miss_latency::.cpu.data 228883351000                       # number of ReadExReq miss cycles
system.l2.ReadExReq_miss_latency::total  228883351000                       # number of ReadExReq miss cycles
system.l2.ReadExReq_accesses::.cpu.data       2974990                       # number of ReadExReq accesses(hits+misses)
system.l2.ReadExReq_accesses::total           2974990                       # number of ReadExReq accesses(hits+misses)
system.l2.ReadExReq_miss_rate::.cpu.data            1                       # miss rate for ReadExReq accesses
system.l2.ReadExReq_miss_rate::total                1                       # miss rate for ReadExReq accesses
system.l2.ReadExReq_avg_miss_latency::.cpu.data 76935.838776                       # average ReadExReq miss latency
system.l2.ReadExReq_avg_miss_latency::total 76935.838776                       # average ReadExReq miss latency
system.l2.ReadExReq_mshr_misses::.cpu.data      2974990                       # number of ReadExReq MSHR misses
system.l2.ReadExReq_mshr_misses::total        2974990                       # number of ReadExReq MSHR misses
system.l2.ReadExReq_mshr_miss_latency::.cpu.data 199133461000                       # number of ReadExReq MSHR miss cycles
system.l2.ReadExReq_mshr_miss_latency::total 199133461000                       # number of ReadExReq MSHR miss cycles
system.l2.ReadExReq_mshr_miss_rate::.cpu.data            1                       # mshr miss rate for ReadExReq accesses
system.l2.ReadExReq_mshr_miss_rate::total            1                       # mshr miss rate for ReadExReq accesses
system.l2.ReadExReq_avg_mshr_miss_latency::.cpu.data 66935.842137                       # average ReadExReq mshr miss latency
system.l2.ReadExReq_avg_mshr_miss_latency::total 66935.842137                       # average ReadExReq mshr miss latency
system.l2.ReadCleanReq_hits::.cpu.inst             12                       # number of ReadCleanReq hits
system.l2.ReadCleanReq_hits::total                 12                       # number of ReadCleanReq hits
system.l2.ReadCleanReq_misses::.cpu.inst          765                       # number of ReadCleanReq misses
system.l2.ReadCleanReq_misses::total              765                       # number of ReadCleanReq misses
system.l2.ReadCleanReq_miss_latency::.cpu.inst     57562000                       # number of ReadCleanReq miss cycles
system.l2.ReadCleanReq_miss_latency::total     57562000                       # number of ReadCleanReq miss cycles
system.l2.ReadCleanReq_accesses::.cpu.inst          777                       # number of ReadCleanReq accesses(hits+misses)
system.l2.ReadCleanReq_accesses::total            777                       # number of ReadCleanReq accesses(hits+misses)
system.l2.ReadCleanReq_miss_rate::.cpu.inst     0.984556                       # miss rate for ReadCleanReq accesses
system.l2.ReadCleanReq_miss_rate::total      0.984556                       # miss rate for ReadCleanReq accesses
system.l2.ReadCleanReq_avg_miss_latency::.cpu.inst 75244.444444                       # average ReadCleanReq miss latency
system.l2.ReadCleanReq_avg_miss_latency::total 75244.444444                       # average ReadCleanReq miss latency
system.l2.ReadCleanReq_mshr_hits::.cpu.inst            1                       # number of ReadCleanReq MSHR hits
system.l2.ReadCleanReq_mshr_hits::total             1                       # number of ReadCleanReq MSHR hits
system.l2.ReadCleanReq_mshr_misses::.cpu.inst          764                       # number of ReadCleanReq MSHR misses
system.l2.ReadCleanReq_mshr_misses::total          764                       # number of ReadCleanReq MSHR misses
system.l2.ReadCleanReq_mshr_miss_latency::.cpu.inst     49851500                       # number of ReadCleanReq MSHR miss cycles
system.l2.ReadCleanReq_mshr_miss_latency::total     49851500                       # number of ReadCleanReq MSHR miss cycles
system.l2.ReadCleanReq_mshr_miss_rate::.cpu.inst     0.983269                       # mshr miss rate for ReadCleanReq accesses
system.l2.ReadCleanReq_mshr_miss_rate::total     0.983269                       # mshr miss rate for ReadCleanReq accesses
system.l2.ReadCleanReq_avg_mshr_miss_latency::.cpu.inst 65250.654450                       # average ReadCleanReq mshr miss latency
system.l2.ReadCleanReq_avg_mshr_miss_latency::total 65250.654450                       # average ReadCleanReq mshr miss latency
system.l2.ReadSharedReq_hits::.cpu.data             9                       # number of ReadSharedReq hits
system.l2.ReadSharedReq_hits::total                 9                       # number of ReadSharedReq hits
system.l2.ReadSharedReq_misses::.cpu.data          168                       # number of ReadSharedReq misses
system.l2.ReadSharedReq_misses::total             168                       # number of ReadSharedReq misses
system.l2.ReadSharedReq_miss_latency::.cpu.data     13906500                       # number of ReadSharedReq miss cycles
system.l2.ReadSharedReq_miss_latency::total     13906500                       # number of ReadSharedReq miss cycles
system.l2.ReadSharedReq_accesses::.cpu.data          177                       # number of ReadSharedReq accesses(hits+misses)
system.l2.ReadSharedReq_accesses::total           177                       # number of ReadSharedReq accesses(hits+misses)
system.l2.ReadSharedReq_miss_rate::.cpu.data     0.949153                       # miss rate for ReadSharedReq accesses
system.l2.ReadSharedReq_miss_rate::total     0.949153                       # miss rate for ReadSharedReq accesses
system.l2.ReadSharedReq_avg_miss_latency::.cpu.data 82776.785714                       # average ReadSharedReq miss latency
system.l2.ReadSharedReq_avg_miss_latency::total 82776.785714                       # average ReadSharedReq miss latency
system.l2.ReadSharedReq_mshr_hits::.cpu.data            4                       # number of ReadSharedReq MSHR hits
system.l2.ReadSharedReq_mshr_hits::total            4                       # number of ReadSharedReq MSHR hits
system.l2.ReadSharedReq_mshr_misses::.cpu.data          164                       # number of ReadSharedReq MSHR misses
system.l2.ReadSharedReq_mshr_misses::total          164                       # number of ReadSharedReq MSHR misses
system.l2.ReadSharedReq_mshr_miss_latency::.cpu.data     11999500                       # number of ReadSharedReq MSHR miss cycles
system.l2.ReadSharedReq_mshr_miss_latency::total     11999500                       # number of ReadSharedReq MSHR miss cycles
system.l2.ReadSharedReq_mshr_miss_rate::.cpu.data     0.926554                       # mshr miss rate for ReadSharedReq accesses
system.l2.ReadSharedReq_mshr_miss_rate::total     0.926554                       # mshr miss rate for ReadSharedReq accesses
system.l2.ReadSharedReq_avg_mshr_miss_latency::.cpu.data 73167.682927                       # average ReadSharedReq mshr miss latency
system.l2.ReadSharedReq_avg_mshr_miss_latency::total 73167.682927                       # average ReadSharedReq mshr miss latency
system.l2.power_state.pwrStateResidencyTicks::UNDEFINED 280510980500                       # Cumulative time (in ticks) in various power states
system.l2.tags.tagsinuse                 16341.375232                       # Cycle average of tags in use
system.l2.tags.total_refs                     5950055                       # Total number of references to valid blocks.
system.l2.tags.sampled_refs                   2975917                       # Sample count of references to valid blocks.
system.l2.tags.avg_refs                      1.999402                       # Average number of references to valid blocks.
system.l2.tags.warmup_cycle                     77000                       # Cycle when the warmup percentage was hit.
system.l2.tags.occ_blocks::.cpu.inst         3.924625                       # Average occupied blocks per requestor
system.l2.tags.occ_blocks::.cpu.data     16337.450607                       # Average occupied blocks per requestor
system.l2.tags.occ_percent::.cpu.inst        0.000240                       # Average percentage of cache occupancy
system.l2.tags.occ_percent::.cpu.data        0.997159                       # Average percentage of cache occupancy
system.l2.tags.occ_percent::total            0.997398                       # Average percentage of cache occupancy
system.l2.tags.occ_task_id_blocks::1024         16384                       # Occupied blocks per task id
system.l2.tags.age_task_id_blocks_1024::0          106                       # Occupied blocks per task id
system.l2.tags.age_task_id_blocks_1024::1          956                       # Occupied blocks per task id
system.l2.tags.age_task_id_blocks_1024::2         9544                       # Occupied blocks per task id
system.l2.tags.age_task_id_blocks_1024::3         5778                       # Occupied blocks per task id
system.l2.tags.occ_task_id_percent::1024            1                       # Percentage of cache occupancy per task id
system.l2.tags.tag_accesses                 193377869                       # Number of tag accesses
system.l2.tags.data_accesses                193377869                       # Number of data accesses
system.l2.tags.power_state.pwrStateResidencyTicks::UNDEFINED 280510980500                       # Cumulative time (in ticks) in various power states
system.mem_ctrls.avgPriority_.writebacks::samples   1479334.00                       # Average QoS priority value for accepted requests
system.mem_ctrls.avgPriority_.cpu.inst::samples       764.00                       # Average QoS priority value for accepted requests
system.mem_ctrls.avgPriority_.cpu.data::samples   2975153.00                       # Average QoS priority value for accepted requests
system.mem_ctrls.priorityMinLatency      0.000000018750                       # per QoS priority minimum request to response latency (s)
system.mem_ctrls.priorityMaxLatency      0.000143686500                       # per QoS priority maximum request to response latency (s)
system.mem_ctrls.numReadWriteTurnArounds        92457                       # Number of turnarounds from READ to WRITE
system.mem_ctrls.numWriteReadTurnArounds        92457                       # Number of turnarounds from WRITE to READ
system.mem_ctrls.numStayReadState             8887732                       # Number of times bus staying in READ state
system.mem_ctrls.numStayWriteState            1390321                       # Number of times bus staying in WRITE state
system.mem_ctrls.readReqs                     2975917                       # Number of read requests accepted
system.mem_ctrls.writeReqs                    2958629                       # Number of write requests accepted
system.mem_ctrls.readBursts                   2975917                       # Number of controller read bursts, including those serviced by the write queue
system.mem_ctrls.writeBursts                  2958629                       # Number of controller write bursts, including those merged in the write queue
system.mem_ctrls.servicedByWrQ                      0                       # Number of controller read bursts serviced by the write queue
system.mem_ctrls.mergedWrBursts               1479295                       # Number of controller write bursts merged with an existing one
system.mem_ctrls.neitherReadNorWriteReqs            0                       # Number of requests that are neither read nor write
system.mem_ctrls.avgRdQLen                       1.00                       # Average read queue length when enqueuing
system.mem_ctrls.avgWrQLen                      25.69                       # Average write queue length when enqueuing
system.mem_ctrls.numRdRetry                         0                       # Number of times read queue was full causing retry
system.mem_ctrls.numWrRetry                         0                       # Number of times write queue was full causing retry
system.mem_ctrls.readPktSize::0                     0                       # Read request sizes (log2)
system.mem_ctrls.readPktSize::1                     0                       # Read request sizes (log2)
system.mem_ctrls.readPktSize::2                     0                       # Read request sizes (log2)
system.mem_ctrls.readPktSize::3                     0                       # Read request sizes (log2)
system.mem_ctrls.readPktSize::4                     0                       # Read request sizes (log2)
system.mem_ctrls.readPktSize::5               2975917                       # Read request sizes (log2)
system.mem_ctrls.writePktSize::0                    0                       # Write request sizes (log2)
system.mem_ctrls.writePktSize::1                    0                       # Write request sizes (log2)
system.mem_ctrls.writePktSize::2                    0                       # Write request sizes (log2)
system.mem_ctrls.writePktSize::3                    0                       # Write request sizes (log2)
system.mem_ctrls.writePktSize::4                    0                       # Write request sizes (log2)
system.mem_ctrls.writePktSize::5              2958629                       # Write request sizes (log2)
system.mem_ctrls.rdQLenPdf::0                 2975751                       # What read queue length does an incoming req see
system.mem_ctrls.rdQLenPdf::1                     150                       # What read queue length does an incoming req see
system.mem_ctrls.rdQLenPdf::2                      15                       # What read queue length does an incoming req see
system.mem_ctrls.rdQLenPdf::3                       1                       # What read queue length does an incoming req see
system.mem_ctrls.rdQLenPdf::4                       0                       # What read queue length does an incoming req see
[...]
system.mem_ctrls.dram.bw_inst_read::total        87155                       # Instruction read bandwidth from this memory (bytes/s)
system.mem_ctrls.dram.bw_write::.writebacks    337513091                       # Write bandwidth from this memory (bytes/s)
system.mem_ctrls.dram.bw_write::total       337513091                       # Write bandwidth from this memory (bytes/s)
system.mem_ctrls.dram.bw_total::.writebacks    337513091                       # Total bandwidth to/from this memory (bytes/s)
system.mem_ctrls.dram.bw_total::.cpu.inst        87155                       # Total bandwidth to/from this memory (bytes/s)
system.mem_ctrls.dram.bw_total::.cpu.data    339398108                       # Total bandwidth to/from this memory (bytes/s)
system.mem_ctrls.dram.bw_total::total       676998354                       # Total bandwidth to/from this memory (bytes/s)
system.mem_ctrls.dram.readBursts              2975917                       # Number of DRAM read bursts
system.mem_ctrls.dram.writeBursts             1479314                       # Number of DRAM write bursts
system.mem_ctrls.dram.perBankRdBursts::0       186081                       # Per bank write bursts
system.mem_ctrls.dram.perBankRdBursts::1       185912                       # Per bank write bursts
system.mem_ctrls.dram.perBankRdBursts::2       185965                       # Per bank write bursts
system.mem_ctrls.dram.perBankRdBursts::3       185871                       # Per bank write bursts
system.mem_ctrls.dram.perBankRdBursts::4       186051                       # Per bank write bursts
system.mem_ctrls.dram.perBankRdBursts::5       186139                       # Per bank write bursts
system.mem_ctrls.dram.perBankRdBursts::6       186119                       # Per bank write bursts
system.mem_ctrls.dram.perBankRdBursts::7       186147                       # Per bank write bursts
system.mem_ctrls.dram.perBankRdBursts::8       186259                       # Per bank write bursts
system.mem_ctrls.dram.perBankRdBursts::9       185885                       # Per bank write bursts
system.mem_ctrls.dram.perBankRdBursts::10       185897                       # Per bank write bursts
system.mem_ctrls.dram.perBankRdBursts::11       185893                       # Per bank write bursts
system.mem_ctrls.dram.perBankRdBursts::12       185964                       # Per bank write bursts
system.mem_ctrls.dram.perBankRdBursts::13       185889                       # Per bank write bursts
system.mem_ctrls.dram.perBankRdBursts::14       185896                       # Per bank write bursts
system.mem_ctrls.dram.perBankRdBursts::15       185949                       # Per bank write bursts
system.mem_ctrls.dram.perBankWrBursts::0        92461                       # Per bank write bursts
system.mem_ctrls.dram.perBankWrBursts::1        92443                       # Per bank write bursts
system.mem_ctrls.dram.perBankWrBursts::2        92431                       # Per bank write bursts
system.mem_ctrls.dram.perBankWrBursts::3        92422                       # Per bank write bursts
system.mem_ctrls.dram.perBankWrBursts::4        92481                       # Per bank write bursts
system.mem_ctrls.dram.perBankWrBursts::5        92544                       # Per bank write bursts
system.mem_ctrls.dram.perBankWrBursts::6        92544                       # Per bank write bursts
system.mem_ctrls.dram.perBankWrBursts::7        92544                       # Per bank write bursts
system.mem_ctrls.dram.perBankWrBursts::8        92529                       # Per bank write bursts
system.mem_ctrls.dram.perBankWrBursts::9        92416                       # Per bank write bursts
system.mem_ctrls.dram.perBankWrBursts::10        92416                       # Per bank write bursts
system.mem_ctrls.dram.perBankWrBursts::11        92416                       # Per bank write bursts
system.mem_ctrls.dram.perBankWrBursts::12        92416                       # Per bank write bursts
system.mem_ctrls.dram.perBankWrBursts::13        92416                       # Per bank write bursts
system.mem_ctrls.dram.perBankWrBursts::14        92416                       # Per bank write bursts
system.mem_ctrls.dram.perBankWrBursts::15        92419                       # Per bank write bursts
system.mem_ctrls.dram.totQLat             22079681500                       # Total ticks spent queuing
system.mem_ctrls.dram.totBusLat           14879585000                       # Total ticks spent in databus transfers
system.mem_ctrls.dram.totMemAccLat        77878125250                       # Total ticks spent from burst creation until serviced by the DRAM
system.mem_ctrls.dram.avgQLat                 7419.45                       # Average queueing delay per DRAM burst
system.mem_ctrls.dram.avgBusLat               5000.00                       # Average bus latency per DRAM burst
system.mem_ctrls.dram.avgMemAccLat           26169.45                       # Average memory access latency per DRAM burst
system.mem_ctrls.dram.readRowHits             2748914                       # Number of row buffer hits during reads
system.mem_ctrls.dram.writeRowHits            1374138                       # Number of row buffer hits during writes
system.mem_ctrls.dram.readRowHitRate            92.37                       # Row buffer hit rate for reads
system.mem_ctrls.dram.writeRowHitRate           92.89                       # Row buffer hit rate for writes
system.mem_ctrls.dram.bytesPerActivate::samples       332178                       # Bytes accessed per row activation
system.mem_ctrls.dram.bytesPerActivate::mean   858.377569                       # Bytes accessed per row activation
system.mem_ctrls.dram.bytesPerActivate::gmean   731.376113                       # Bytes accessed per row activation
system.mem_ctrls.dram.bytesPerActivate::stdev   304.184404                       # Bytes accessed per row activation
system.mem_ctrls.dram.bytesPerActivate::0-127        18265      5.50%      5.50% # Bytes accessed per row activation
system.mem_ctrls.dram.bytesPerActivate::128-255        14805      4.46%      9.96% # Bytes accessed per row activation
system.mem_ctrls.dram.bytesPerActivate::256-383         5557      1.67%     11.63% # Bytes accessed per row activation
system.mem_ctrls.dram.bytesPerActivate::384-511        14009      4.22%     15.85% # Bytes accessed per row activation
system.mem_ctrls.dram.bytesPerActivate::512-639        11574      3.48%     19.33% # Bytes accessed per row activation
system.mem_ctrls.dram.bytesPerActivate::640-767         6958      2.09%     21.42% # Bytes accessed per row activation
system.mem_ctrls.dram.bytesPerActivate::768-895        12744      3.84%     25.26% # Bytes accessed per row activation
system.mem_ctrls.dram.bytesPerActivate::896-1023        23128      6.96%     32.22% # Bytes accessed per row activation
system.mem_ctrls.dram.bytesPerActivate::1024-1151       225138     67.78%    100.00% # Bytes accessed per row activation
system.mem_ctrls.dram.bytesPerActivate::total       332178                       # Bytes accessed per row activation
system.mem_ctrls.dram.bytesRead             190458688                       # Total number of bytes read from DRAM
system.mem_ctrls.dram.bytesWritten           94676096                       # Total number of bytes written to DRAM
system.mem_ctrls.dram.avgRdBW              678.970526                       # Average DRAM read bandwidth in MiBytes/s
system.mem_ctrls.dram.avgWrBW              337.512977                       # Average DRAM write bandwidth in MiBytes/s
system.mem_ctrls.dram.peakBW                 12800.00                       # Theoretical peak bandwidth in MiByte/s
system.mem_ctrls.dram.busUtil                    7.94                       # Data bus utilization in percentage
system.mem_ctrls.dram.busUtilRead                5.30                       # Data bus utilization in percentage for reads
system.mem_ctrls.dram.busUtilWrite               2.64                       # Data bus utilization in percentage for writes
system.mem_ctrls.dram.pageHitRate               92.54                       # Row buffer hit rate, read and write combined
system.mem_ctrls.dram.power_state.pwrStateResidencyTicks::UNDEFINED 280510980500                       # Cumulative time (in ticks) in various power states
system.mem_ctrls.dram.rank0.actEnergy      1186339560                       # Energy for activate commands per rank (pJ)
system.mem_ctrls.dram.rank0.preEnergy       630554430                       # Energy for precharge commands per rank (pJ)
system.mem_ctrls.dram.rank0.readEnergy    10626354900                       # Energy for read commands per rank (pJ)
system.mem_ctrls.dram.rank0.writeEnergy    3862121400                       # Energy for write commands per rank (pJ)
system.mem_ctrls.dram.rank0.refreshEnergy 22143020640.000004                       # Energy for refresh commands per rank (pJ)
system.mem_ctrls.dram.rank0.actBackEnergy  65017587510                       # Energy for active background per rank (pJ)
system.mem_ctrls.dram.rank0.preBackEnergy  52964564160                       # Energy for precharge background per rank (pJ)
system.mem_ctrls.dram.rank0.actPowerDownEnergy            0                       # Energy for active power-down per rank (pJ)
system.mem_ctrls.dram.rank0.prePowerDownEnergy            0                       # Energy for precharge power-down per rank (pJ)
system.mem_ctrls.dram.rank0.selfRefreshEnergy            0                       # Energy for self refresh per rank (pJ)
system.mem_ctrls.dram.rank0.totalEnergy  156430542600                       # Total energy per rank (pJ)
system.mem_ctrls.dram.rank0.averagePower   557.662813                       # Core power per rank (mW)
system.mem_ctrls.dram.rank0.totalIdleTime            0                       # Total Idle time Per DRAM Rank
system.mem_ctrls.dram.rank0.pwrStateTime::IDLE 135692209750                       # Time in different power states
system.mem_ctrls.dram.rank0.pwrStateTime::REF   9366760000                       # Time in different power states
system.mem_ctrls.dram.rank0.pwrStateTime::SREF            0                       # Time in different power states
system.mem_ctrls.dram.rank0.pwrStateTime::PRE_PDN            0                       # Time in different power states
system.mem_ctrls.dram.rank0.pwrStateTime::ACT 135452010750                       # Time in different power states
system.mem_ctrls.dram.rank0.pwrStateTime::ACT_PDN            0                       # Time in different power states
system.mem_ctrls.dram.rank1.actEnergy      1185418500                       # Energy for activate commands per rank (pJ)
system.mem_ctrls.dram.rank1.preEnergy       630061080                       # Energy for precharge commands per rank (pJ)
system.mem_ctrls.dram.rank1.readEnergy    10621692480                       # Energy for read commands per rank (pJ)
system.mem_ctrls.dram.rank1.writeEnergy    3859897680                       # Energy for write commands per rank (pJ)
system.mem_ctrls.dram.rank1.refreshEnergy 22143020640.000004                       # Energy for refresh commands per rank (pJ)
system.mem_ctrls.dram.rank1.actBackEnergy  64997595330                       # Energy for active background per rank (pJ)
system.mem_ctrls.dram.rank1.preBackEnergy  52981399680                       # Energy for precharge background per rank (pJ)
system.mem_ctrls.dram.rank1.actPowerDownEnergy            0                       # Energy for active power-down per rank (pJ)
system.mem_ctrls.dram.rank1.prePowerDownEnergy            0                       # Energy for precharge power-down per rank (pJ)
system.mem_ctrls.dram.rank1.selfRefreshEnergy            0                       # Energy for self refresh per rank (pJ)
system.mem_ctrls.dram.rank1.totalEnergy  156419085390                       # Total energy per rank (pJ)
system.mem_ctrls.dram.rank1.averagePower   557.621969                       # Core power per rank (mW)
system.mem_ctrls.dram.rank1.totalIdleTime            0                       # Total Idle time Per DRAM Rank
system.mem_ctrls.dram.rank1.pwrStateTime::IDLE 135736435250                       # Time in different power states
system.mem_ctrls.dram.rank1.pwrStateTime::REF   9366760000                       # Time in different power states
system.mem_ctrls.dram.rank1.pwrStateTime::SREF            0                       # Time in different power states
system.mem_ctrls.dram.rank1.pwrStateTime::PRE_PDN            0                       # Time in different power states
system.mem_ctrls.dram.rank1.pwrStateTime::ACT 135407785250                       # Time in different power states
system.mem_ctrls.dram.rank1.pwrStateTime::ACT_PDN            0                       # Time in different power states
system.mem_ctrls.power_state.pwrStateResidencyTicks::UNDEFINED 280510980500                       # Cumulative time (in ticks) in various power states
system.membus.trans_dist::ReadResp                928                       # Transaction distribution
system.membus.trans_dist::WritebackDirty      2958629                       # Transaction distribution
system.membus.trans_dist::CleanEvict              126                       # Transaction distribution
system.membus.trans_dist::ReadExReq           2974989                       # Transaction distribution
system.membus.trans_dist::ReadExResp          2974989                       # Transaction distribution
system.membus.trans_dist::ReadSharedReq           928                       # Transaction distribution
system.membus.pkt_count_system.l2.mem_side_port::system.mem_ctrls.port      8910589                       # Packet count per connected requestor and responder (bytes)
system.membus.pkt_count::total                8910589                       # Packet count per connected requestor and responder (bytes)
system.membus.pkt_size_system.l2.mem_side_port::system.mem_ctrls.port    189905472                       # Cumulative packet size per connected requestor and responder (bytes)
system.membus.pkt_size::total               189905472                       # Cumulative packet size per connected requestor and responder (bytes)
system.membus.snoops                                0                       # Total snoops (count)
system.membus.snoopTraffic                          0                       # Total snoop traffic (bytes)
system.membus.snoop_fanout::samples           2975917                       # Request fanout histogram
system.membus.snoop_fanout::mean                    0                       # Request fanout histogram
system.membus.snoop_fanout::stdev                   0                       # Request fanout histogram
system.membus.snoop_fanout::underflows              0      0.00%      0.00% # Request fanout histogram
system.membus.snoop_fanout::0                 2975917    100.00%    100.00% # Request fanout histogram
system.membus.snoop_fanout::1                       0      0.00%    100.00% # Request fanout histogram
system.membus.snoop_fanout::overflows               0      0.00%    100.00% # Request fanout histogram
system.membus.snoop_fanout::min_value               0                       # Request fanout histogram
system.membus.snoop_fanout::max_value               0                       # Request fanout histogram
system.membus.snoop_fanout::total             2975917                       # Request fanout histogram
system.membus.power_state.pwrStateResidencyTicks::UNDEFINED 280510980500                       # Cumulative time (in ticks) in various power states
system.membus.reqLayer0.occupancy         11859040000                       # Layer occupancy (ticks)
system.membus.reqLayer0.utilization               4.2                       # Layer utilization (%)
system.membus.respLayer1.occupancy         9713175750                       # Layer occupancy (ticks)
system.membus.respLayer1.utilization              3.5                       # Layer utilization (%)
system.tol2bus.trans_dist::ReadResp               954                       # Transaction distribution
system.tol2bus.trans_dist::WritebackDirty      5932620                       # Transaction distribution
system.tol2bus.trans_dist::CleanEvict            1055                       # Transaction distribution
system.tol2bus.trans_dist::ReadExReq          2974990                       # Transaction distribution
system.tol2bus.trans_dist::ReadExResp         2974989                       # Transaction distribution
system.tol2bus.trans_dist::ReadCleanReq           777                       # Transaction distribution
system.tol2bus.trans_dist::ReadSharedReq          177                       # Transaction distribution
system.tol2bus.pkt_count_system.cpu.icache.mem_side_port::system.l2.cpu_side_port         1554                       # Packet count per connected requestor and responder (bytes)
system.tol2bus.pkt_count_system.cpu.dcache.mem_side_port::system.l2.cpu_side_port      8924475                       # Packet count per connected requestor and responder (bytes)
system.tol2bus.pkt_count::total               8926029                       # Packet count per connected requestor and responder (bytes)
system.tol2bus.pkt_size_system.cpu.icache.mem_side_port::system.l2.cpu_side_port        24864                       # Cumulative packet size per connected requestor and responder (bytes)
system.tol2bus.pkt_size_system.cpu.dcache.mem_side_port::system.l2.cpu_side_port    190373024                       # Cumulative packet size per connected requestor and responder (bytes)
system.tol2bus.pkt_size::total              190397888                       # Cumulative packet size per connected requestor and responder (bytes)
system.tol2bus.snoops                         2959533                       # Total snoops (count)
system.tol2bus.snoopTraffic                  94676128                       # Total snoop traffic (bytes)
system.tol2bus.snoop_fanout::samples          5935477                       # Request fanout histogram
system.tol2bus.snoop_fanout::mean            0.000136                       # Request fanout histogram
system.tol2bus.snoop_fanout::stdev           0.011659                       # Request fanout histogram
system.tol2bus.snoop_fanout::underflows             0      0.00%      0.00% # Request fanout histogram
system.tol2bus.snoop_fanout::0                5934673     99.99%     99.99% # Request fanout histogram
system.tol2bus.snoop_fanout::1                    803      0.01%    100.00% # Request fanout histogram
system.tol2bus.snoop_fanout::2                      1      0.00%    100.00% # Request fanout histogram
system.tol2bus.snoop_fanout::overflows              0      0.00%    100.00% # Request fanout histogram
system.tol2bus.snoop_fanout::min_value              0                       # Request fanout histogram
system.tol2bus.snoop_fanout::max_value              2                       # Request fanout histogram
system.tol2bus.snoop_fanout::total            5935477                       # Request fanout histogram
system.tol2bus.power_state.pwrStateResidencyTicks::UNDEFINED 280510980500                       # Cumulative time (in ticks) in various power states
system.tol2bus.reqLayer0.occupancy         4462038500                       # Layer occupancy (ticks)
system.tol2bus.reqLayer0.utilization              1.6                       # Layer utilization (%)
system.tol2bus.respLayer0.occupancy            777499                       # Layer occupancy (ticks)
system.tol2bus.respLayer0.utilization             0.0                       # Layer utilization (%)
system.tol2bus.respLayer1.occupancy        2975167996                       # Layer occupancy (ticks)
system.tol2bus.respLayer1.utilization             1.1                       # Layer utilization (%)
system.voltage_domain.voltage                       1                       # Voltage in Volts

---------- End Simulation Statistics   ----------
