
---------- Begin Simulation Statistics ----------
final_tick                               174885349000                       # Number of ticks from beginning of simulation (restored from checkpoints and never reset)
host_inst_rate                                 255109                       # Simulator instruction rate (inst/s)
host_mem_usage                                 664948                       # Number of bytes of host memory used
host_op_rate                                   255118                       # Simulator op (including micro ops) rate (op/s)
host_seconds                                   391.99                       # Real time elapsed on the host
host_tick_rate                              446147731                       # Simulator tick rate (ticks/s)
sim_freq                                 1000000000000                       # Frequency of simulated ticks
sim_insts                                   100000000                       # Number of instructions simulated
sim_ops                                     100003638                       # Number of ops (including micro ops) simulated
sim_seconds                                  0.174885                       # Number of seconds simulated
sim_ticks                                174885349000                       # Number of ticks simulated
system.cpu.committedInsts                   100000000                       # Number of instructions committed
system.cpu.committedOps                     100003638                       # Number of ops (including micro ops) committed
system.cpu.cpi                               3.497707                       # CPI: cycles per instruction
system.cpu.discardedOps                         21296                       # Number of ops (including micro ops) which were discarded before commit
system.cpu.idleCycles                       232419493                       # Total number of cycles that the object has spent stopped
system.cpu.ipc                               0.285902                       # IPC: instructions per cycle
system.cpu.numCycles                        349770698                       # number of cpu cycles simulated
system.cpu.numFetchSuspends                         0                       # Number of times Execute suspended instruction fetching
system.cpu.numWorkItemsCompleted                    0                       # number of work items this cpu completed
system.cpu.numWorkItemsStarted                      0                       # number of work items this cpu started
system.cpu.op_class_0::No_OpClass                   0      0.00%      0.00% # Class of committed instruction
system.cpu.op_class_0::IntAlu                49995336     49.99%     49.99% # Class of committed instruction
system.cpu.op_class_0::IntMult                     85      0.00%     49.99% # Class of committed instruction
system.cpu.op_class_0::IntDiv                       0      0.00%     49.99% # Class of committed instruction
system.cpu.op_class_0::FloatAdd                     0      0.00%     49.99% # Class of committed instruction
system.cpu.op_class_0::FloatCmp                     0      0.00%     49.99% # Class of committed instruction
system.cpu.op_class_0::FloatCvt                     0      0.00%     49.99% # Class of committed instruction
system.cpu.op_class_0::FloatMult                    0      0.00%     49.99% # Class of committed instruction
system.cpu.op_class_0::FloatMultAcc                 0      0.00%     49.99% # Class of committed instruction
system.cpu.op_class_0::FloatDiv                     0      0.00%     49.99% # Class of committed instruction
system.cpu.op_class_0::FloatMisc                    0      0.00%     49.99% # Class of committed instruction
system.cpu.op_class_0::FloatSqrt                    0      0.00%     49.99% # Class of committed instruction
system.cpu.op_class_0::SimdAdd                      0      0.00%     49.99% # Class of committed instruction
system.cpu.op_class_0::SimdAddAcc                   0      0.00%     49.99% # Class of committed instruction
system.cpu.op_class_0::SimdAlu                      0      0.00%     49.99% # Class of committed instruction
system.cpu.op_class_0::SimdCmp                      0      0.00%     49.99% # Class of committed instruction
system.cpu.op_class_0::SimdCvt                      0      0.00%     49.99% # Class of committed instruction
system.cpu.op_class_0::SimdMisc                     0      0.00%     49.99% # Class of committed instruction
system.cpu.op_class_0::SimdMult                     0      0.00%     49.99% # Class of committed instruction
system.cpu.op_class_0::SimdMultAcc                  0      0.00%     49.99% # Class of committed instruction
system.cpu.op_class_0::SimdShift                    0      0.00%     49.99% # Class of committed instruction
system.cpu.op_class_0::SimdShiftAcc                 0      0.00%     49.99% # Class of committed instruction
system.cpu.op_class_0::SimdDiv                      0      0.00%     49.99% # Class of committed instruction
system.cpu.op_class_0::SimdSqrt                     0      0.00%     49.99% # Class of committed instruction
system.cpu.op_class_0::SimdFloatAdd                 0      0.00%     49.99% # Class of committed instruction
system.cpu.op_class_0::SimdFloatAlu                 0      0.00%     49.99% # Class of committed instruction
system.cpu.op_class_0::SimdFloatCmp                 2      0.00%     49.99% # Class of committed instruction
system.cpu.op_class_0::SimdFloatCvt                 0      0.00%     49.99% # Class of committed instruction
system.cpu.op_class_0::SimdFloatDiv                 0      0.00%     49.99% # Class of committed instruction
system.cpu.op_class_0::SimdFloatMisc               22      0.00%     49.99% # Class of committed instruction
system.cpu.op_class_0::SimdFloatMult                0      0.00%     49.99% # Class of committed instruction
system.cpu.op_class_0::SimdFloatMultAcc             0      0.00%     49.99% # Class of committed instruction
system.cpu.op_class_0::SimdFloatSqrt                0      0.00%     49.99% # Class of committed instruction
system.cpu.op_class_0::SimdReduceAdd                0      0.00%     49.99% # Class of committed instruction
system.cpu.op_class_0::SimdReduceAlu                0      0.00%     49.99% # Class of committed instruction
system.cpu.op_class_0::SimdReduceCmp                0      0.00%     49.99% # Class of committed instruction
system.cpu.op_class_0::SimdFloatReduceAdd            0      0.00%     49.99% # Class of committed instruction
system.cpu.op_class_0::SimdFloatReduceCmp            0      0.00%     49.99% # Class of committed instruction
system.cpu.op_class_0::SimdAes                      0      0.00%     49.99% # Class of committed instruction
system.cpu.op_class_0::SimdAesMix                   0      0.00%     49.99% # Class of committed instruction
system.cpu.op_class_0::SimdSha1Hash                 0      0.00%     49.99% # Class of committed instruction
system.cpu.op_class_0::SimdSha1Hash2                0      0.00%     49.99% # Class of committed instruction
system.cpu.op_class_0::SimdSha256Hash               0      0.00%     49.99% # Class of committed instruction
system.cpu.op_class_0::SimdSha256Hash2              0      0.00%     49.99% # Class of committed instruction
system.cpu.op_class_0::SimdShaSigma2                0      0.00%     49.99% # Class of committed instruction
system.cpu.op_class_0::SimdShaSigma3                0      0.00%     49.99% # Class of committed instruction
system.cpu.op_class_0::SimdPredAlu                  0      0.00%     49.99% # Class of committed instruction
system.cpu.op_class_0::MemRead               36892300     36.89%     86.88% # Class of committed instruction
system.cpu.op_class_0::MemWrite              13115893     13.12%    100.00% # Class of committed instruction
system.cpu.op_class_0::FloatMemRead                 0      0.00%    100.00% # Class of committed instruction
system.cpu.op_class_0::FloatMemWrite                0      0.00%    100.00% # Class of committed instruction
system.cpu.op_class_0::IprAccess                    0      0.00%    100.00% # Class of committed instruction
system.cpu.op_class_0::InstPrefetch                 0      0.00%    100.00% # Class of committed instruction
system.cpu.op_class_0::total                100003638                       # Class of committed instruction
system.cpu.tickCycles                       117351205                       # Number of cycles that the object actually ticked
system.cpu.workload.numSyscalls                    18                       # Number of system calls
system.membus.snoop_filter.hit_multi_requests            0                       # Number of requests hitting in the snoop filter with multiple (>1) holders of the requested data.
system.membus.snoop_filter.hit_multi_snoops            0                       # Number of snoops hitting in the snoop filter with multiple (>1) holders of the requested data.
system.membus.snoop_filter.hit_single_requests      1471217                       # Number of requests hitting in the snoop filter with a single holder of the requested data.
system.membus.snoop_filter.hit_single_snoops            0                       # Number of snoops hitting in the snoop filter with a single holder of the requested data.
system.membus.snoop_filter.tot_requests       2959325                       # Total number of requests made to the snoop filter.
system.membus.snoop_filter.tot_snoops               0                       # Total number of snoops made to the snoop filter.
system.tol2bus.snoop_filter.hit_multi_requests           29                       # Number of requests hitting in the snoop filter with multiple (>1) holders of the requested data.
system.tol2bus.snoop_filter.hit_multi_snoops            1                       # Number of snoops hitting in the snoop filter with multiple (>1) holders of the requested data.
system.tol2bus.snoop_filter.hit_single_requests      1487121                       # Number of requests hitting in the snoop filter with a single holder of the requested data.
system.tol2bus.snoop_filter.hit_single_snoops          506                       # Number of snoops hitting in the snoop filter with a single holder of the requested data.
system.tol2bus.snoop_filter.tot_requests      2975259                       # Total number of requests made to the snoop filter.
system.tol2bus.snoop_filter.tot_snoops            507                       # Total number of snoops made to the snoop filter.
system.clk_domain.clock                          1000                       # Clock period in ticks
system.cpu.branchPred.lookups                  606569                       # Number of BP lookups
system.cpu.branchPred.condPredicted            604438                       # Number of conditional branches predicted
system.cpu.branchPred.condIncorrect               844                       # Number of conditional branches incorrect
system.cpu.branchPred.BTBLookups               602459                       # Number of BTB lookups
system.cpu.branchPred.BTBHits                  601372                       # Number of BTB hits
system.cpu.branchPred.BTBHitPct             99.819573                       # BTB Hit Percentage
system.cpu.branchPred.RASUsed                     584                       # Number of times the RAS was used to get a target.
system.cpu.branchPred.RASIncorrect                  1                       # Number of incorrect RAS predictions.
system.cpu.branchPred.indirectLookups             377                       # Number of indirect predictor lookups.
system.cpu.branchPred.indirectHits                173                       # Number of indirect target hits.
system.cpu.branchPred.indirectMisses              204                       # Number of indirect misses.
system.cpu.branchPred.indirectMispredicted          103                       # Number of mispredicted indirect branches.
system.cpu.dcache.demand_hits::.cpu.data     45820157                       # number of demand (read+write) hits
system.cpu.dcache.demand_hits::total         45820157                       # number of demand (read+write) hits
system.cpu.dcache.overall_hits::.cpu.data     45820189                       # number of overall hits
system.cpu.dcache.overall_hits::total        45820189                       # number of overall hits
system.cpu.dcache.demand_misses::.cpu.data      2975104                       # number of demand (read+write) misses
system.cpu.dcache.demand_misses::total        2975104                       # number of demand (read+write) misses
system.cpu.dcache.overall_misses::.cpu.data      2975124                       # number of overall misses
system.cpu.dcache.overall_misses::total       2975124                       # number of overall misses
system.cpu.dcache.demand_miss_latency::.cpu.data 237491451500                       # number of demand (read+write) miss cycles
system.cpu.dcache.demand_miss_latency::total 237491451500                       # number of demand (read+write) miss cycles
system.cpu.dcache.overall_miss_latency::.cpu.data 237491451500                       # number of overall miss cycles
system.cpu.dcache.overall_miss_latency::total 237491451500                       # number of overall miss cycles
system.cpu.dcache.demand_accesses::.cpu.data     48795261                       # number of demand (read+write) accesses
system.cpu.dcache.demand_accesses::total     48795261                       # number of demand (read+write) accesses
system.cpu.dcache.overall_accesses::.cpu.data     48795313                       # number of overall (read+write) accesses
system.cpu.dcache.overall_accesses::total     48795313                       # number of overall (read+write) accesses
system.cpu.dcache.demand_miss_rate::.cpu.data     0.060971                       # miss rate for demand accesses
system.cpu.dcache.demand_miss_rate::total     0.060971                       # miss rate for demand accesses
system.cpu.dcache.overall_miss_rate::.cpu.data     0.060972                       # miss rate for overall accesses
system.cpu.dcache.overall_miss_rate::total     0.060972                       # miss rate for overall accesses
system.cpu.dcache.demand_avg_miss_latency::.cpu.data 79826.268762                       # average overall miss latency
system.cpu.dcache.demand_avg_miss_latency::total 79826.268762                       # average overall miss latency
system.cpu.dcache.overall_avg_miss_latency::.cpu.data 79825.732138                       # average overall miss latency
system.cpu.dcache.overall_avg_miss_latency::total 79825.732138                       # average overall miss latency
system.cpu.dcache.blocked_cycles::no_mshrs            0                       # number of cycles access was blocked
system.cpu.dcache.blocked_cycles::no_targets            0                       # number of cycles access was blocked
system.cpu.dcache.blocked::no_mshrs                 0                       # number of cycles access was blocked
system.cpu.dcache.blocked::no_targets               0                       # number of cycles access was blocked
system.cpu.dcache.avg_blocked_cycles::no_mshrs          nan                       # average number of cycles each access was blocked
system.cpu.dcache.avg_blocked_cycles::no_targets          nan                       # average number of cycles each access was blocked
system.cpu.dcache.writebacks::.writebacks      1487012                       # number of writebacks
system.cpu.dcache.writebacks::total           1487012                       # number of writebacks
system.cpu.dcache.demand_mshr_hits::.cpu.data      1487486                       # number of demand (read+write) MSHR hits
system.cpu.dcache.demand_mshr_hits::total      1487486                       # number of demand (read+write) MSHR hits
system.cpu.dcache.overall_mshr_hits::.cpu.data      1487486                       # number of overall MSHR hits
system.cpu.dcache.overall_mshr_hits::total      1487486                       # number of overall MSHR hits
system.cpu.dcache.demand_mshr_misses::.cpu.data      1487618                       # number of demand (read+write) MSHR misses
system.cpu.dcache.demand_mshr_misses::total      1487618                       # number of demand (read+write) MSHR misses
system.cpu.dcache.overall_mshr_misses::.cpu.data      1487633                       # number of overall MSHR misses
system.cpu.dcache.overall_mshr_misses::total      1487633                       # number of overall MSHR misses
system.cpu.dcache.demand_mshr_miss_latency::.cpu.data 121209943500                       # number of demand (read+write) MSHR miss cycles
system.cpu.dcache.demand_mshr_miss_latency::total 121209943500                       # number of demand (read+write) MSHR miss cycles
system.cpu.dcache.overall_mshr_miss_latency::.cpu.data 121211119000                       # number of overall MSHR miss cycles
system.cpu.dcache.overall_mshr_miss_latency::total 121211119000                       # number of overall MSHR miss cycles
system.cpu.dcache.demand_mshr_miss_rate::.cpu.data     0.030487                       # mshr miss rate for demand accesses
system.cpu.dcache.demand_mshr_miss_rate::total     0.030487                       # mshr miss rate for demand accesses
system.cpu.dcache.overall_mshr_miss_rate::.cpu.data     0.030487                       # mshr miss rate for overall accesses
system.cpu.dcache.overall_mshr_miss_rate::total     0.030487                       # mshr miss rate for overall accesses
system.cpu.dcache.demand_avg_mshr_miss_latency::.cpu.data 81479.212741                       # average overall mshr miss latency
system.cpu.dcache.demand_avg_mshr_miss_latency::total 81479.212741                       # average overall mshr miss latency
system.cpu.dcache.overall_avg_mshr_miss_latency::.cpu.data 81479.181357                       # average overall mshr miss latency
system.cpu.dcache.overall_avg_mshr_miss_latency::total 81479.181357                       # average overall mshr miss latency
system.cpu.dcache.replacements                1487120                       # number of replacements
system.cpu.dcache.ReadReq_hits::.cpu.data     35702599                       # number of ReadReq hits
system.cpu.dcache.ReadReq_hits::total        35702599                       # number of ReadReq hits
system.cpu.dcache.ReadReq_misses::.cpu.data          116                       # number of ReadReq misses
system.cpu.dcache.ReadReq_misses::total           116                       # number of ReadReq misses
system.cpu.dcache.ReadReq_miss_latency::.cpu.data      9546500                       # number of ReadReq miss cycles
system.cpu.dcache.ReadReq_miss_latency::total      9546500                       # number of ReadReq miss cycles
system.cpu.dcache.ReadReq_accesses::.cpu.data     35702715                       # number of ReadReq accesses(hits+misses)
system.cpu.dcache.ReadReq_accesses::total     35702715                       # number of ReadReq accesses(hits+misses)
system.cpu.dcache.ReadReq_miss_rate::.cpu.data     0.000003                       # miss rate for ReadReq accesses
system.cpu.dcache.ReadReq_miss_rate::total     0.000003                       # miss rate for ReadReq accesses
system.cpu.dcache.ReadReq_avg_miss_latency::.cpu.data 82297.413793                       # average ReadReq miss latency
system.cpu.dcache.ReadReq_avg_miss_latency::total 82297.413793                       # average ReadReq miss latency
system.cpu.dcache.ReadReq_mshr_hits::.cpu.data            4                       # number of ReadReq MSHR hits
system.cpu.dcache.ReadReq_mshr_hits::total            4                       # number of ReadReq MSHR hits
system.cpu.dcache.ReadReq_mshr_misses::.cpu.data          112                       # number of ReadReq MSHR misses
system.cpu.dcache.ReadReq_mshr_misses::total          112                       # number of ReadReq MSHR misses
system.cpu.dcache.ReadReq_mshr_miss_latency::.cpu.data      9097500                       # number of ReadReq MSHR miss cycles
system.cpu.dcache.ReadReq_mshr_miss_latency::total      9097500                       # number of ReadReq MSHR miss cycles
system.cpu.dcache.ReadReq_mshr_miss_rate::.cpu.data     0.000003                       # mshr miss rate for ReadReq accesses
system.cpu.dcache.ReadReq_mshr_miss_rate::total     0.000003                       # mshr miss rate for ReadReq accesses
system.cpu.dcache.ReadReq_avg_mshr_miss_latency::.cpu.data 81227.678571                       # average ReadReq mshr miss latency
system.cpu.dcache.ReadReq_avg_mshr_miss_latency::total 81227.678571                       # average ReadReq mshr miss latency
system.cpu.dcache.WriteReq_hits::.cpu.data     10117558                       # number of WriteReq hits
system.cpu.dcache.WriteReq_hits::total       10117558                       # number of WriteReq hits
system.cpu.dcache.WriteReq_misses::.cpu.data      2974988                       # number of WriteReq misses
system.cpu.dcache.WriteReq_misses::total      2974988                       # number of WriteReq misses
system.cpu.dcache.WriteReq_miss_latency::.cpu.data 237481905000                       # number of WriteReq miss cycles
system.cpu.dcache.WriteReq_miss_latency::total 237481905000                       # number of WriteReq miss cycles
system.cpu.dcache.WriteReq_accesses::.cpu.data     13092546                       # number of WriteReq accesses(hits+misses)
system.cpu.dcache.WriteReq_accesses::total     13092546                       # number of WriteReq accesses(hits+misses)
system.cpu.dcache.WriteReq_miss_rate::.cpu.data     0.227228                       # miss rate for WriteReq accesses
system.cpu.dcache.WriteReq_miss_rate::total     0.227228                       # miss rate for WriteReq accesses
system.cpu.dcache.WriteReq_avg_miss_latency::.cpu.data 79826.172408                       # average WriteReq miss latency
system.cpu.dcache.WriteReq_avg_miss_latency::total 79826.172408                       # average WriteReq miss latency
system.cpu.dcache.WriteReq_mshr_hits::.cpu.data      1487482                       # number of WriteReq MSHR hits
system.cpu.dcache.WriteReq_mshr_hits::total      1487482                       # number of WriteReq MSHR hits
system.cpu.dcache.WriteReq_mshr_misses::.cpu.data      1487506                       # number of WriteReq MSHR misses
system.cpu.dcache.WriteReq_mshr_misses::total      1487506                       # number of WriteReq MSHR misses
system.cpu.dcache.WriteReq_mshr_miss_latency::.cpu.data 121200846000                       # number of WriteReq MSHR miss cycles
system.cpu.dcache.WriteReq_mshr_miss_latency::total 121200846000                       # number of WriteReq MSHR miss cycles
system.cpu.dcache.WriteReq_mshr_miss_rate::.cpu.data     0.113615                       # mshr miss rate for WriteReq accesses
system.cpu.dcache.WriteReq_mshr_miss_rate::total     0.113615                       # mshr miss rate for WriteReq accesses
system.cpu.dcache.WriteReq_avg_mshr_miss_latency::.cpu.data 81479.231680                       # average WriteReq mshr miss latency
system.cpu.dcache.WriteReq_avg_mshr_miss_latency::total 81479.231680                       # average WriteReq mshr miss latency
system.cpu.dcache.SoftPFReq_hits::.cpu.data           32                       # number of SoftPFReq hits
system.cpu.dcache.SoftPFReq_hits::total            32                       # number of SoftPFReq hits
system.cpu.dcache.SoftPFReq_misses::.cpu.data           20                       # number of SoftPFReq misses
system.cpu.dcache.SoftPFReq_misses::total           20                       # number of SoftPFReq misses
system.cpu.dcache.SoftPFReq_accesses::.cpu.data           52                       # number of SoftPFReq accesses(hits+misses)
system.cpu.dcache.SoftPFReq_accesses::total           52                       # number of SoftPFReq accesses(hits+misses)
system.cpu.dcache.SoftPFReq_miss_rate::.cpu.data     0.384615                       # miss rate for SoftPFReq accesses
system.cpu.dcache.SoftPFReq_miss_rate::total     0.384615                       # miss rate for SoftPFReq accesses
system.cpu.dcache.SoftPFReq_mshr_misses::.cpu.data           15                       # number of SoftPFReq MSHR misses
system.cpu.dcache.SoftPFReq_mshr_misses::total           15                       # number of SoftPFReq MSHR misses
system.cpu.dcache.SoftPFReq_mshr_miss_latency::.cpu.data      1175500                       # number of SoftPFReq MSHR miss cycles
system.cpu.dcache.SoftPFReq_mshr_miss_latency::total      1175500                       # number of SoftPFReq MSHR miss cycles
system.cpu.dcache.SoftPFReq_mshr_miss_rate::.cpu.data     0.288462                       # mshr miss rate for SoftPFReq accesses
system.cpu.dcache.SoftPFReq_mshr_miss_rate::total     0.288462                       # mshr miss rate for SoftPFReq accesses
system.cpu.dcache.SoftPFReq_avg_mshr_miss_latency::.cpu.data 78366.666667                       # average SoftPFReq mshr miss latency
system.cpu.dcache.SoftPFReq_avg_mshr_miss_latency::total 78366.666667                       # average SoftPFReq mshr miss latency
system.cpu.dcache.LoadLockedReq_hits::.cpu.data           14                       # number of LoadLockedReq hits
system.cpu.dcache.LoadLockedReq_hits::total           14                       # number of LoadLockedReq hits
system.cpu.dcache.LoadLockedReq_accesses::.cpu.data           14                       # number of LoadLockedReq accesses(hits+misses)
system.cpu.dcache.LoadLockedReq_accesses::total           14                       # number of LoadLockedReq accesses(hits+misses)
system.cpu.dcache.StoreCondReq_hits::.cpu.data           14                       # number of StoreCondReq hits
system.cpu.dcache.StoreCondReq_hits::total           14                       # number of StoreCondReq hits
system.cpu.dcache.StoreCondReq_accesses::.cpu.data           14                       # number of StoreCondReq accesses(hits+misses)
system.cpu.dcache.StoreCondReq_accesses::total           14                       # number of StoreCondReq accesses(hits+misses)
system.cpu.dcache.power_state.pwrStateResidencyTicks::UNDEFINED 174885349000                       # Cumulative time (in ticks) in various power states
system.cpu.dcache.tags.tagsinuse           511.839479                       # Cycle average of tags in use
system.cpu.dcache.tags.total_refs            47307849                       # Total number of references to valid blocks.
system.cpu.dcache.tags.sampled_refs           1487632                       # Sample count of references to valid blocks.
system.cpu.dcache.tags.avg_refs             31.800774                       # Average number of references to valid blocks.
system.cpu.dcache.tags.warmup_cycle            176500                       # Cycle when the warmup percentage was hit.
system.cpu.dcache.tags.occ_blocks::.cpu.data   511.839479                       # Average occupied blocks per requestor
system.cpu.dcache.tags.occ_percent::.cpu.data     0.999686                       # Average percentage of cache occupancy
system.cpu.dcache.tags.occ_percent::total     0.999686                       # Average percentage of cache occupancy
system.cpu.dcache.tags.occ_task_id_blocks::1024          512                       # Occupied blocks per task id
system.cpu.dcache.tags.age_task_id_blocks_1024::0           86                       # Occupied blocks per task id
system.cpu.dcache.tags.age_task_id_blocks_1024::1          424                       # Occupied blocks per task id
system.cpu.dcache.tags.age_task_id_blocks_1024::4            2                       # Occupied blocks per task id
system.cpu.dcache.tags.occ_task_id_percent::1024            1                       # Percentage of cache occupancy per task id
system.cpu.dcache.tags.tag_accesses        1562938544                       # Number of tag accesses
system.cpu.dcache.tags.data_accesses       1562938544                       # Number of data accesses
system.cpu.dcache.tags.power_state.pwrStateResidencyTicks::UNDEFINED 174885349000                       # Cumulative time (in ticks) in various power states
system.cpu.dtb.instHits                             0                       # ITB inst hits
system.cpu.dtb.instMisses                           0                       # ITB inst misses
system.cpu.dtb.readHits                             0                       # DTB read hits
system.cpu.dtb.readMisses                           0                       # DTB read misses
system.cpu.dtb.writeHits                            0                       # DTB write hits
system.cpu.dtb.writeMisses                          0                       # DTB write misses
system.cpu.dtb.inserts                              0                       # Number of times an entry is inserted into the TLB
system.cpu.dtb.flushTlb                             0                       # Number of times complete TLB was flushed
system.cpu.dtb.flushTlbMva                          0                       # Number of times TLB was flushed by MVA
system.cpu.dtb.flushTlbMvaAsid                      0                       # Number of times TLB was flushed by MVA & ASID
system.cpu.dtb.flushTlbAsid                         0                       # Number of times TLB was flushed by ASID
system.cpu.dtb.flushedEntries                       0                       # Number of entries that have been flushed from TLB
system.cpu.dtb.alignFaults                          0                       # Number of TLB faults due to alignment restrictions
system.cpu.dtb.prefetchFaults                       0                       # Number of TLB faults due to prefetch
system.cpu.dtb.domainFaults                         0                       # Number of TLB faults due to domain restrictions
system.cpu.dtb.permsFaults                          0                       # Number of TLB faults due to permissions restrictions
system.cpu.dtb.readAccesses                         0                       # DTB read accesses
system.cpu.dtb.writeAccesses                        0                       # DTB write accesses
system.cpu.dtb.instAccesses                         0                       # ITB inst accesses
system.cpu.dtb.hits                                 0                       # Total TLB (inst and data) hits
system.cpu.dtb.misses                               0                       # Total TLB (inst and data) misses
system.cpu.dtb.accesses                             0                       # Total TLB (inst and data) accesses
system.cpu.dtb.stage2_mmu.stage2_tlb.instHits            0                       # ITB inst hits
system.cpu.dtb.stage2_mmu.stage2_tlb.instMisses            0                       # ITB inst misses
system.cpu.dtb.stage2_mmu.stage2_tlb.readHits            0                       # DTB read hits
system.cpu.dtb.stage2_mmu.stage2_tlb.readMisses            0                       # DTB read misses
system.cpu.dtb.stage2_mmu.stage2_tlb.writeHits            0                       # DTB write hits
system.cpu.dtb.stage2_mmu.stage2_tlb.writeMisses            0                       # DTB write misses
system.cpu.dtb.stage2_mmu.stage2_tlb.inserts            0                       # Number of times an entry is inserted into the TLB
system.cpu.dtb.stage2_mmu.stage2_tlb.flushTlb            0                       # Number of times complete TLB was flushed
system.cpu.dtb.stage2_mmu.stage2_tlb.flushTlbMva            0                       # Number of times TLB was flushed by MVA
system.cpu.dtb.stage2_mmu.stage2_tlb.flushTlbMvaAsid            0                       # Number of times TLB was flushed by MVA & ASID
system.cpu.dtb.stage2_mmu.stage2_tlb.flushTlbAsid            0                       # Number of times TLB was flushed by ASID
system.cpu.dtb.stage2_mmu.stage2_tlb.flushedEntries            0                       # Number of entries that have been flushed from TLB
system.cpu.dtb.stage2_mmu.stage2_tlb.alignFaults            0                       # Number of TLB faults due to alignment restrictions
system.cpu.dtb.stage2_mmu.stage2_tlb.prefetchFaults            0                       # Number of TLB faults due to prefetch
system.cpu.dtb.stage2_mmu.stage2_tlb.domainFaults            0                       # Number of TLB faults due to domain restrictions
system.cpu.dtb.stage2_mmu.stage2_tlb.permsFaults            0                       # Number of TLB faults due to permissions restrictions
system.cpu.dtb.stage2_mmu.stage2_tlb.readAccesses            0                       # DTB read accesses
system.cpu.dtb.stage2_mmu.stage2_tlb.writeAccesses            0                       # DTB write accesses
system.cpu.dtb.stage2_mmu.stage2_tlb.instAccesses            0                       # ITB inst accesses
system.cpu.dtb.stage2_mmu.stage2_tlb.hits            0                       # Total TLB (inst and data) hits
system.cpu.dtb.stage2_mmu.stage2_tlb.misses            0                       # Total TLB (inst and data) misses
system.cpu.dtb.stage2_mmu.stage2_tlb.accesses            0                       # Total TLB (inst and data) accesses
system.cpu.dtb.stage2_mmu.stage2_tlb.walker.walks            0                       # Table walker walks requested
system.cpu.dtb.stage2_mmu.stage2_tlb.walker.requestOrigin_Requested::Data            0                       # Table walker requests started/completed, data/inst
system.cpu.dtb.stage2_mmu.stage2_tlb.walker.requestOrigin_Requested::Inst            0                       # Table walker requests started/completed, data/inst
system.cpu.dtb.stage2_mmu.stage2_tlb.walker.requestOrigin_Requested::total            0                       # Table walker requests started/completed, data/inst
system.cpu.dtb.stage2_mmu.stage2_tlb.walker.requestOrigin_Completed::Data            0                       # Table walker requests started/completed, data/inst
system.cpu.dtb.stage2_mmu.stage2_tlb.walker.requestOrigin_Completed::Inst            0                       # Table walker requests started/completed, data/inst
system.cpu.dtb.stage2_mmu.stage2_tlb.walker.requestOrigin_Completed::total            0                       # Table walker requests started/completed, data/inst
system.cpu.dtb.stage2_mmu.stage2_tlb.walker.requestOrigin::total            0                       # Table walker requests started/completed, data/inst
system.cpu.dtb.stage2_mmu.stage2_tlb.walker.power_state.pwrStateResidencyTicks::UNDEFINED 174885349000                       # Cumulative time (in ticks) in various power states
system.cpu.dtb.walker.walks                         0                       # Table walker walks requested
system.cpu.dtb.walker.requestOrigin_Requested::Data            0                       # Table walker requests started/completed, data/inst
system.cpu.dtb.walker.requestOrigin_Requested::Inst            0                       # Table walker requests started/completed, data/inst
system.cpu.dtb.walker.requestOrigin_Requested::total            0                       # Table walker requests started/completed, data/inst
system.cpu.dtb.walker.requestOrigin_Completed::Data            0                       # Table walker requests started/completed, data/inst
system.cpu.dtb.walker.requestOrigin_Completed::Inst            0                       # Table walker requests started/completed, data/inst
system.cpu.dtb.walker.requestOrigin_Completed::total            0                       # Table walker requests started/completed, data/inst
system.cpu.dtb.walker.requestOrigin::total            0                       # Table walker requests started/completed, data/inst
system.cpu.dtb.walker.power_state.pwrStateResidencyTicks::UNDEFINED 174885349000                       # Cumulative time (in ticks) in various power states
system.cpu.fetch2.intInstructions            49669994                       # Number of integer instructions successfully decoded
system.cpu.fetch2.fpInstructions                    0                       # Number of floating point instructions successfully decoded
system.cpu.fetch2.vecInstructions                   0                       # Number of SIMD instructions successfully decoded
system.cpu.fetch2.loadInstructions           37092406                       # Number of memory load instructions successfully decoded
system.cpu.fetch2.storeInstructions          13161208                       # Number of memory store instructions successfully decoded
system.cpu.fetch2.amoInstructions                   0                       # Number of memory atomic instructions successfully decoded
system.cpu.icache.demand_hits::.cpu.inst      6045834                       # number of demand (read+write) hits
system.cpu.icache.demand_hits::total          6045834                       # number of demand (read+write) hits
system.cpu.icache.overall_hits::.cpu.inst      6045834                       # number of overall hits
system.cpu.icache.overall_hits::total         6045834                       # number of overall hits
system.cpu.icache.demand_misses::.cpu.inst          506                       # number of demand (read+write) misses
system.cpu.icache.demand_misses::total            506                       # number of demand (read+write) misses
system.cpu.icache.overall_misses::.cpu.inst          506                       # number of overall misses
system.cpu.icache.overall_misses::total           506                       # number of overall misses
system.cpu.icache.demand_miss_latency::.cpu.inst     38288000                       # number of demand (read+write) miss cycles
system.cpu.icache.demand_miss_latency::total     38288000                       # number of demand (read+write) miss cycles
system.cpu.icache.overall_miss_latency::.cpu.inst     38288000                       # number of overall miss cycles
system.cpu.icache.overall_miss_latency::total     38288000                       # number of overall miss cycles
system.cpu.icache.demand_accesses::.cpu.inst      6046340                       # number of demand (read+write) accesses
system.cpu.icache.demand_accesses::total      6046340                       # number of demand (read+write) accesses
system.cpu.icache.overall_accesses::.cpu.inst      6046340                       # number of overall (read+write) accesses
system.cpu.icache.overall_accesses::total      6046340                       # number of overall (read+write) accesses
system.cpu.icache.demand_miss_rate::.cpu.inst     0.000084                       # miss rate for demand accesses
system.cpu.icache.demand_miss_rate::total     0.000084                       # miss rate for demand accesses
system.cpu.icache.overall_miss_rate::.cpu.inst     0.000084                       # miss rate for overall accesses
system.cpu.icache.overall_miss_rate::total     0.000084                       # miss rate for overall accesses
system.cpu.icache.demand_avg_miss_latency::.cpu.inst 75667.984190                       # average overall miss latency
system.cpu.icache.demand_avg_miss_latency::total 75667.984190                       # average overall miss latency
system.cpu.icache.overall_avg_miss_latency::.cpu.inst 75667.984190                       # average overall miss latency
system.cpu.icache.overall_avg_miss_latency::total 75667.984190                       # average overall miss latency
system.cpu.icache.blocked_cycles::no_mshrs            0                       # number of cycles access was blocked
system.cpu.icache.blocked_cycles::no_targets            0                       # number of cycles access was blocked
system.cpu.icache.blocked::no_mshrs                 0                       # number of cycles access was blocked
system.cpu.icache.blocked::no_targets               0                       # number of cycles access was blocked
system.cpu.icache.avg_blocked_cycles::no_mshrs          nan                       # average number of cycles each access was blocked
system.cpu.icache.avg_blocked_cycles::no_targets          nan                       # average number of cycles each access was blocked
system.cpu.icache.demand_mshr_misses::.cpu.inst          506                       # number of demand (read+write) MSHR misses
system.cpu.icache.demand_mshr_misses::total          506                       # number of demand (read+write) MSHR misses
system.cpu.icache.overall_mshr_misses::.cpu.inst          506                       # number of overall MSHR misses
system.cpu.icache.overall_mshr_misses::total          506                       # number of overall MSHR misses
system.cpu.icache.demand_mshr_miss_latency::.cpu.inst     37782000                       # number of demand (read+write) MSHR miss cycles
system.cpu.icache.demand_mshr_miss_latency::total     37782000                       # number of demand (read+write) MSHR miss cycles
system.cpu.icache.overall_mshr_miss_latency::.cpu.inst     37782000                       # number of overall MSHR miss cycles
system.cpu.icache.overall_mshr_miss_latency::total     37782000                       # number of overall MSHR miss cycles
system.cpu.icache.demand_mshr_miss_rate::.cpu.inst     0.000084                       # mshr miss rate for demand accesses
system.cpu.icache.demand_mshr_miss_rate::total     0.000084                       # mshr miss rate for demand accesses
system.cpu.icache.overall_mshr_miss_rate::.cpu.inst     0.000084                       # mshr miss rate for overall accesses
system.cpu.icache.overall_mshr_miss_rate::total     0.000084                       # mshr miss rate for overall accesses
system.cpu.icache.demand_avg_mshr_miss_latency::.cpu.inst 74667.984190                       # average overall mshr miss latency
system.cpu.icache.demand_avg_mshr_miss_latency::total 74667.984190                       # average overall mshr miss latency
system.cpu.icache.overall_avg_mshr_miss_latency::.cpu.inst 74667.984190                       # average overall mshr miss latency
system.cpu.icache.overall_avg_mshr_miss_latency::total 74667.984190                       # average overall mshr miss latency
system.cpu.icache.replacements                      0                       # number of replacements
system.cpu.icache.ReadReq_hits::.cpu.inst      6045834                       # number of ReadReq hits
system.cpu.icache.ReadReq_hits::total         6045834                       # number of ReadReq hits
system.cpu.icache.ReadReq_misses::.cpu.inst          506                       # number of ReadReq misses
system.cpu.icache.ReadReq_misses::total           506                       # number of ReadReq misses
system.cpu.icache.ReadReq_miss_latency::.cpu.inst     38288000                       # number of ReadReq miss cycles
system.cpu.icache.ReadReq_miss_latency::total     38288000                       # number of ReadReq miss cycles
system.cpu.icache.ReadReq_accesses::.cpu.inst      6046340                       # number of ReadReq accesses(hits+misses)
system.cpu.icache.ReadReq_accesses::total      6046340                       # number of ReadReq accesses(hits+misses)
system.cpu.icache.ReadReq_miss_rate::.cpu.inst     0.000084                       # miss rate for ReadReq accesses
system.cpu.icache.ReadReq_miss_rate::total     0.000084                       # miss rate for ReadReq accesses
system.cpu.icache.ReadReq_avg_miss_latency::.cpu.inst 75667.984190                       # average ReadReq miss latency
system.cpu.icache.ReadReq_avg_miss_latency::total 75667.984190                       # average ReadReq miss latency
system.cpu.icache.ReadReq_mshr_misses::.cpu.inst          506                       # number of ReadReq MSHR misses
system.cpu.icache.ReadReq_mshr_misses::total          506                       # number of ReadReq MSHR misses
system.cpu.icache.ReadReq_mshr_miss_latency::.cpu.inst     37782000                       # number of ReadReq MSHR miss cycles
system.cpu.icache.ReadReq_mshr_miss_latency::total     37782000                       # number of ReadReq MSHR miss cycles
system.cpu.icache.ReadReq_mshr_miss_rate::.cpu.inst     0.000084                       # mshr miss rate for ReadReq accesses
system.cpu.icache.ReadReq_mshr_miss_rate::total     0.000084                       # mshr miss rate for ReadReq accesses
system.cpu.icache.ReadReq_avg_mshr_miss_latency::.cpu.inst 74667.984190                       # average ReadReq mshr miss latency
system.cpu.icache.ReadReq_avg_mshr_miss_latency::total 74667.984190                       # average ReadReq mshr miss latency
system.cpu.icache.power_state.pwrStateResidencyTicks::UNDEFINED 174885349000                       # Cumulative time (in ticks) in various power states
system.cpu.icache.tags.tagsinuse           505.918645                       # Cycle average of tags in use
system.cpu.icache.tags.total_refs             6046340                       # Total number of references to valid blocks.
system.cpu.icache.tags.sampled_refs               506                       # Sample count of references to valid blocks.
system.cpu.icache.tags.avg_refs          11949.288538                       # Average number of references to valid blocks.
system.cpu.icache.tags.warmup_cycle             87500                       # Cycle when the warmup percentage was hit.
system.cpu.icache.tags.occ_blocks::.cpu.inst   505.918645                       # Average occupied blocks per requestor
system.cpu.icache.tags.occ_percent::.cpu.inst     0.494061                       # Average percentage of cache occupancy
system.cpu.icache.tags.occ_percent::total     0.494061                       # Average percentage of cache occupancy
system.cpu.icache.tags.occ_task_id_blocks::1024          506                       # Occupied blocks per task id
system.cpu.icache.tags.age_task_id_blocks_1024::4          506                       # Occupied blocks per task id
system.cpu.icache.tags.occ_task_id_percent::1024     0.494141                       # Percentage of cache occupancy per task id
system.cpu.icache.tags.tag_accesses         193483386                       # Number of tag accesses
system.cpu.icache.tags.data_accesses        193483386                       # Number of data accesses
system.cpu.icache.tags.power_state.pwrStateResidencyTicks::UNDEFINED 174885349000                       # Cumulative time (in ticks) in various power states
system.cpu.itb.instHits                             0                       # ITB inst hits
system.cpu.itb.instMisses                           0                       # ITB inst misses
system.cpu.itb.readHits                             0                       # DTB read hits
system.cpu.itb.readMisses                           0                       # DTB read misses
system.cpu.itb.writeHits                            0                       # DTB write hits
system.cpu.itb.writeMisses                          0                       # DTB write misses
system.cpu.itb.inserts                              0                       # Number of times an entry is inserted into the TLB
system.cpu.itb.flushTlb                             0                       # Number of times complete TLB was flushed
system.cpu.itb.flushTlbMva                          0                       # Number of times TLB was flushed by MVA
system.cpu.itb.flushTlbMvaAsid                      0                       # Number of times TLB was flushed by MVA & ASID
system.cpu.itb.flushTlbAsid                         0                       # Number of times TLB was flushed by ASID
system.cpu.itb.flushedEntries                       0                       # Number of entries that have been flushed from TLB
system.cpu.itb.alignFaults                          0                       # Number of TLB faults due to alignment restrictions
system.cpu.itb.prefetchFaults                       0                       # Number of TLB faults due to prefetch
system.cpu.itb.domainFaults                         0                       # Number of TLB faults due to domain restrictions
system.cpu.itb.permsFaults                          0                       # Number of TLB faults due to permissions restrictions
system.cpu.itb.readAccesses                         0                       # DTB read accesses
system.cpu.itb.writeAccesses                        0                       # DTB write accesses
system.cpu.itb.instAccesses                         0                       # ITB inst accesses
system.cpu.itb.hits                                 0                       # Total TLB (inst and data) hits
system.cpu.itb.misses                               0                       # Total TLB (inst and data) misses
system.cpu.itb.accesses                             0                       # Total TLB (inst and data) accesses
system.cpu.itb.stage2_mmu.stage2_tlb.instHits            0                       # ITB inst hits
system.cpu.itb.stage2_mmu.stage2_tlb.instMisses            0                       # ITB inst misses
system.cpu.itb.stage2_mmu.stage2_tlb.readHits            0                       # DTB read hits
system.cpu.itb.stage2_mmu.stage2_tlb.readMisses            0                       # DTB read misses
system.cpu.itb.stage2_mmu.stage2_tlb.writeHits            0                       # DTB write hits
system.cpu.itb.stage2_mmu.stage2_tlb.writeMisses            0                       # DTB write misses
system.cpu.itb.stage2_mmu.stage2_tlb.inserts            0                       # Number of times an entry is inserted into the TLB
system.cpu.itb.stage2_mmu.stage2_tlb.flushTlb            0                       # Number of times complete TLB was flushed
system.cpu.itb.stage2_mmu.stage2_tlb.flushTlbMva            0                       # Number of times TLB was flushed by MVA
system.cpu.itb.stage2_mmu.stage2_tlb.flushTlbMvaAsid            0                       # Number of times TLB was flushed by MVA & ASID
system.cpu.itb.stage2_mmu.stage2_tlb.flushTlbAsid            0                       # Number of times TLB was flushed by ASID
system.cpu.itb.stage2_mmu.stage2_tlb.flushedEntries            0                       # Number of entries that have been flushed from TLB
system.cpu.itb.stage2_mmu.stage2_tlb.alignFaults            0                       # Number of TLB faults due to alignment restrictions
system.cpu.itb.stage2_mmu.stage2_tlb.prefetchFaults            0                       # Number of TLB faults due to prefetch
system.cpu.itb.stage2_mmu.stage2_tlb.domainFaults            0                       # Number of TLB faults due to domain restrictions
system.cpu.itb.stage2_mmu.stage2_tlb.permsFaults            0                       # Number of TLB faults due to permissions restrictions
system.cpu.itb.stage2_mmu.stage2_tlb.readAccesses            0                       # DTB read accesses
system.cpu.itb.stage2_mmu.stage2_tlb.writeAccesses            0                       # DTB write accesses
system.cpu.itb.stage2_mmu.stage2_tlb.instAccesses            0                       # ITB inst accesses
system.cpu.itb.stage2_mmu.stage2_tlb.hits            0                       # Total TLB (inst and data) hits
system.cpu.itb.stage2_mmu.stage2_tlb.misses            0                       # Total TLB (inst and data) misses
system.cpu.itb.stage2_mmu.stage2_tlb.accesses            0                       # Total TLB (inst and data) accesses
system.cpu.itb.stage2_mmu.stage2_tlb.walker.walks            0                       # Table walker walks requested
system.cpu.itb.stage2_mmu.stage2_tlb.walker.requestOrigin_Requested::Data            0                       # Table walker requests started/completed, data/inst
system.cpu.itb.stage2_mmu.stage2_tlb.walker.requestOrigin_Requested::Inst            0                       # Table walker requests started/completed, data/inst
system.cpu.itb.stage2_mmu.stage2_tlb.walker.requestOrigin_Requested::total            0                       # Table walker requests started/completed, data/inst
system.cpu.itb.stage2_mmu.stage2_tlb.walker.requestOrigin_Completed::Data            0                       # Table walker requests started/completed, data/inst
system.cpu.itb.stage2_mmu.stage2_tlb.walker.requestOrigin_Completed::Inst            0                       # Table walker requests started/completed, data/inst
system.cpu.itb.stage2_mmu.stage2_tlb.walker.requestOrigin_Completed::total            0                       # Table walker requests started/completed, data/inst
system.cpu.itb.stage2_mmu.stage2_tlb.walker.requestOrigin::total            0                       # Table walker requests started/completed, data/inst
system.cpu.itb.stage2_mmu.stage2_tlb.walker.power_state.pwrStateResidencyTicks::UNDEFINED 174885349000                       # Cumulative time (in ticks) in various power states
system.cpu.itb.walker.walks                         0                       # Table walker walks requested
system.cpu.itb.walker.requestOrigin_Requested::Data            0                       # Table walker requests started/completed, data/inst
system.cpu.itb.walker.requestOrigin_Requested::Inst            0                       # Table walker requests started/completed, data/inst
system.cpu.itb.walker.requestOrigin_Requested::total            0                       # Table walker requests started/completed, data/inst
system.cpu.itb.walker.requestOrigin_Completed::Data            0                       # Table walker requests started/completed, data/inst
system.cpu.itb.walker.requestOrigin_Completed::Inst            0                       # Table walker requests started/completed, data/inst
system.cpu.itb.walker.requestOrigin_Completed::total            0                       # Table walker requests started/completed, data/inst
system.cpu.itb.walker.requestOrigin::total            0                       # Table walker requests started/completed, data/inst
system.cpu.itb.walker.power_state.pwrStateResidencyTicks::UNDEFINED 174885349000                       # Cumulative time (in ticks) in various power states
system.cpu.power_state.pwrStateResidencyTicks::ON 174885349000                       # Cumulative time (in ticks) in various power states
system.cpu.thread_0.numInsts                100000000                       # Number of Instructions committed
system.cpu.thread_0.numOps                  100003638                       # Number of Ops committed
system.cpu.thread_0.numMemRefs                      0                       # Number of Memory References
system.cpu_clk_domain.clock                       500                       # Clock period in ticks
system.cpu_voltage_domain.voltage                   1                       # Voltage in Volts
system.l2.demand_hits::.cpu.inst                   13                       # number of demand (read+write) hits
system.l2.demand_hits::.cpu.data                   14                       # number of demand (read+write) hits
system.l2.demand_hits::total                       27                       # number of demand (read+write) hits
system.l2.overall_hits::.cpu.inst                  13                       # number of overall hits
system.l2.overall_hits::.cpu.data                  14                       # number of overall hits
system.l2.overall_hits::total                      27                       # number of overall hits
system.l2.demand_misses::.cpu.inst                493                       # number of demand (read+write) misses
system.l2.demand_misses::.cpu.data            1487619                       # number of demand (read+write) misses
system.l2.demand_misses::total                1488112                       # number of demand (read+write) misses
system.l2.overall_misses::.cpu.inst               493                       # number of overall misses
system.l2.overall_misses::.cpu.data           1487619                       # number of overall misses
system.l2.overall_misses::total               1488112                       # number of overall misses
system.l2.demand_miss_latency::.cpu.inst     36873000                       # number of demand (read+write) miss cycles
system.l2.demand_miss_latency::.cpu.data 118979507500                       # number of demand (read+write) miss cycles
system.l2.demand_miss_latency::total     119016380500                       # number of demand (read+write) miss cycles
system.l2.overall_miss_latency::.cpu.inst     36873000                       # number of overall miss cycles
system.l2.overall_miss_latency::.cpu.data 118979507500                       # number of overall miss cycles
system.l2.overall_miss_latency::total    119016380500                       # number of overall miss cycles
system.l2.demand_accesses::.cpu.inst              506                       # number of demand (read+write) accesses
system.l2.demand_accesses::.cpu.data          1487633                       # number of demand (read+write) accesses
system.l2.demand_accesses::total              1488139                       # number of demand (read+write) accesses
system.l2.overall_accesses::.cpu.inst             506                       # number of overall (read+write) accesses
system.l2.overall_accesses::.cpu.data         1487633                       # number of overall (read+write) accesses
system.l2.overall_accesses::total             1488139                       # number of overall (read+write) accesses
system.l2.demand_miss_rate::.cpu.inst        0.974308                       # miss rate for demand accesses
system.l2.demand_miss_rate::.cpu.data        0.999991                       # miss rate for demand accesses
system.l2.demand_miss_rate::total            0.999982                       # miss rate for demand accesses
system.l2.overall_miss_rate::.cpu.inst       0.974308                       # miss rate for overall accesses
system.l2.overall_miss_rate::.cpu.data       0.999991                       # miss rate for overall accesses
system.l2.overall_miss_rate::total           0.999982                       # miss rate for overall accesses
system.l2.demand_avg_miss_latency::.cpu.inst 74793.103448                       # average overall miss latency
system.l2.demand_avg_miss_latency::.cpu.data 79979.825143                       # average overall miss latency
system.l2.demand_avg_miss_latency::total 79978.106823                       # average overall miss latency
system.l2.overall_avg_miss_latency::.cpu.inst 74793.103448                       # average overall miss latency
system.l2.overall_avg_miss_latency::.cpu.data 79979.825143                       # average overall miss latency
system.l2.overall_avg_miss_latency::total 79978.106823                       # average overall miss latency
system.l2.blocked_cycles::no_mshrs                  0                       # number of cycles access was blocked
system.l2.blocked_cycles::no_targets                0                       # number of cycles access was blocked
system.l2.blocked::no_mshrs                         0                       # number of cycles access was blocked
system.l2.blocked::no_targets                       0                       # number of cycles access was blocked
system.l2.avg_blocked_cycles::no_mshrs            nan                       # average number of cycles each access was blocked
system.l2.avg_blocked_cycles::no_targets          nan                       # average number of cycles each access was blocked
system.l2.writebacks::.writebacks             1471138                       # number of writebacks
system.l2.writebacks::total                   1471138                       # number of writebacks
system.l2.demand_mshr_hits::.cpu.data               3                       # number of demand (read+write) MSHR hits
system.l2.demand_mshr_hits::total                   3                       # number of demand (read+write) MSHR hits
system.l2.overall_mshr_hits::.cpu.data              3                       # number of overall MSHR hits
system.l2.overall_mshr_hits::total                  3                       # number of overall MSHR hits
system.l2.demand_mshr_misses::.cpu.inst           493                       # number of demand (read+write) MSHR misses
system.l2.demand_mshr_misses::.cpu.data       1487616                       # number of demand (read+write) MSHR misses
system.l2.demand_mshr_misses::total           1488109                       # number of demand (read+write) MSHR misses
system.l2.overall_mshr_misses::.cpu.inst          493                       # number of overall MSHR misses
system.l2.overall_mshr_misses::.cpu.data      1487616                       # number of overall MSHR misses
system.l2.overall_mshr_misses::total          1488109                       # number of overall MSHR misses
system.l2.demand_mshr_miss_latency::.cpu.inst     31943000                       # number of demand (read+write) MSHR miss cycles
system.l2.demand_mshr_miss_latency::.cpu.data 104103156000                       # number of demand (read+write) MSHR miss cycles
system.l2.demand_mshr_miss_latency::total 104135099000                       # number of demand (read+write) MSHR miss cycles
system.l2.overall_mshr_miss_latency::.cpu.inst     31943000                       # number of overall MSHR miss cycles
system.l2.overall_mshr_miss_latency::.cpu.data 104103156000                       # number of overall MSHR miss cycles
system.l2.overall_mshr_miss_latency::total 104135099000                       # number of overall MSHR miss cycles
system.l2.demand_mshr_miss_rate::.cpu.inst     0.974308                       # mshr miss rate for demand accesses
system.l2.demand_mshr_miss_rate::.cpu.data     0.999989                       # mshr miss rate for demand accesses
system.l2.demand_mshr_miss_rate::total       0.999980                       # mshr miss rate for demand accesses
system.l2.overall_mshr_miss_rate::.cpu.inst     0.974308                       # mshr miss rate for overall accesses
system.l2.overall_mshr_miss_rate::.cpu.data     0.999989                       # mshr miss rate for overall accesses
system.l2.overall_mshr_miss_rate::total      0.999980                       # mshr miss rate for overall accesses
system.l2.demand_avg_mshr_miss_latency::.cpu.inst 64793.103448                       # average overall mshr miss latency
system.l2.demand_avg_mshr_miss_latency::.cpu.data 69979.857705                       # average overall mshr miss latency
system.l2.demand_avg_mshr_miss_latency::total 69978.139370                       # average overall mshr miss latency
system.l2.overall_avg_mshr_miss_latency::.cpu.inst 64793.103448                       # average overall mshr miss latency
system.l2.overall_avg_mshr_miss_latency::.cpu.data 69979.857705                       # average overall mshr miss latency
system.l2.overall_avg_mshr_miss_latency::total 69978.139370                       # average overall mshr miss latency
system.l2.replacements                        1471724                       # number of replacements
system.l2.WritebackDirty_hits::.writebacks      1487012                       # number of WritebackDirty hits
system.l2.WritebackDirty_hits::total          1487012                       # number of WritebackDirty hits
system.l2.WritebackDirty_accesses::.writebacks      1487012                       # number of WritebackDirty accesses(hits+misses)
system.l2.WritebackDirty_accesses::total      1487012                       # number of WritebackDirty accesses(hits+misses)
system.l2.ReadExReq_misses::.cpu.data         1487506                       # number of ReadExReq misses
system.l2.ReadExReq_misses::total             1487506                       # number of ReadExReq misses
system.l2.ReadExReq_miss_latency::.cpu.data 118969587500                       # number of ReadExReq miss cycles
system.l2.ReadExReq_miss_latency::total  118969587500                       # number of ReadExReq miss cycles
system.l2.ReadExReq_accesses::.cpu.data       1487506                       # number of ReadExReq accesses(hits+misses)
system.l2.ReadExReq_accesses::total           1487506                       # number of ReadExReq accesses(hits+misses)
system.l2.ReadExReq_miss_rate::.cpu.data            1                       # miss rate for ReadExReq accesses
system.l2.ReadExReq_miss_rate::total                1                       # miss rate for ReadExReq accesses
system.l2.ReadExReq_avg_miss_latency::.cpu.data 79979.232017                       # average ReadExReq miss latency
system.l2.ReadExReq_avg_miss_latency::total 79979.232017                       # average ReadExReq miss latency
system.l2.ReadExReq_mshr_misses::.cpu.data      1487506                       # number of ReadExReq MSHR misses
system.l2.ReadExReq_mshr_misses::total        1487506                       # number of ReadExReq MSHR misses
system.l2.ReadExReq_mshr_miss_latency::.cpu.data 104094537500                       # number of ReadExReq MSHR miss cycles
system.l2.ReadExReq_mshr_miss_latency::total 104094537500                       # number of ReadExReq MSHR miss cycles
system.l2.ReadExReq_mshr_miss_rate::.cpu.data            1                       # mshr miss rate for ReadExReq accesses
system.l2.ReadExReq_mshr_miss_rate::total            1                       # mshr miss rate for ReadExReq accesses
system.l2.ReadExReq_avg_mshr_miss_latency::.cpu.data 69979.238739                       # average ReadExReq mshr miss latency
system.l2.ReadExReq_avg_mshr_miss_latency::total 69979.238739                       # average ReadExReq mshr miss latency
system.l2.ReadCleanReq_hits::.cpu.inst             13                       # number of ReadCleanReq hits
system.l2.ReadCleanReq_hits::total                 13                       # number of ReadCleanReq hits
system.l2.ReadCleanReq_misses::.cpu.inst          493                       # number of ReadCleanReq misses
system.l2.ReadCleanReq_misses::total              493                       # number of ReadCleanReq misses
system.l2.ReadCleanReq_miss_latency::.cpu.inst     36873000                       # number of ReadCleanReq miss cycles
system.l2.ReadCleanReq_miss_latency::total     36873000                       # number of ReadCleanReq miss cycles
system.l2.ReadCleanReq_accesses::.cpu.inst          506                       # number of ReadCleanReq accesses(hits+misses)
system.l2.ReadCleanReq_accesses::total            506                       # number of ReadCleanReq accesses(hits+misses)
system.l2.ReadCleanReq_miss_rate::.cpu.inst     0.974308                       # miss rate for ReadCleanReq accesses
system.l2.ReadCleanReq_miss_rate::total      0.974308                       # miss rate for ReadCleanReq accesses
system.l2.ReadCleanReq_avg_miss_latency::.cpu.inst 74793.103448                       # average ReadCleanReq miss latency
system.l2.ReadCleanReq_avg_miss_latency::total 74793.103448                       # average ReadCleanReq miss latency
system.l2.ReadCleanReq_mshr_misses::.cpu.inst          493                       # number of ReadCleanReq MSHR misses
system.l2.ReadCleanReq_mshr_misses::total          493                       # number of ReadCleanReq MSHR misses
system.l2.ReadCleanReq_mshr_miss_latency::.cpu.inst     31943000                       # number of ReadCleanReq MSHR miss cycles
system.l2.ReadCleanReq_mshr_miss_latency::total     31943000                       # number of ReadCleanReq MSHR miss cycles
system.l2.ReadCleanReq_mshr_miss_rate::.cpu.inst     0.974308                       # mshr miss rate for ReadCleanReq accesses
system.l2.ReadCleanReq_mshr_miss_rate::total     0.974308                       # mshr miss rate for ReadCleanReq accesses
system.l2.ReadCleanReq_avg_mshr_miss_latency::.cpu.inst 64793.103448                       # average ReadCleanReq mshr miss latency
system.l2.ReadCleanReq_avg_mshr_miss_latency::total 64793.103448                       # average ReadCleanReq mshr miss latency
system.l2.ReadSharedReq_hits::.cpu.data            14                       # number of ReadSharedReq hits
system.l2.ReadSharedReq_hits::total                14                       # number of ReadSharedReq hits
system.l2.ReadSharedReq_misses::.cpu.data          113                       # number of ReadSharedReq misses
system.l2.ReadSharedReq_misses::total             113                       # number of ReadSharedReq misses
system.l2.ReadSharedReq_miss_latency::.cpu.data      9920000                       # number of ReadSharedReq miss cycles
system.l2.ReadSharedReq_miss_latency::total      9920000                       # number of ReadSharedReq miss cycles
system.l2.ReadSharedReq_accesses::.cpu.data          127                       # number of ReadSharedReq accesses(hits+misses)
system.l2.ReadSharedReq_accesses::total           127                       # number of ReadSharedReq accesses(hits+misses)
system.l2.ReadSharedReq_miss_rate::.cpu.data     0.889764                       # miss rate for ReadSharedReq accesses
system.l2.ReadSharedReq_miss_rate::total     0.889764                       # miss rate for ReadSharedReq accesses
system.l2.ReadSharedReq_avg_miss_latency::.cpu.data 87787.610619                       # average ReadSharedReq miss latency
system.l2.ReadSharedReq_avg_miss_latency::total 87787.610619                       # average ReadSharedReq miss latency
system.l2.ReadSharedReq_mshr_hits::.cpu.data            3                       # number of ReadSharedReq MSHR hits
system.l2.ReadSharedReq_mshr_hits::total            3                       # number of ReadSharedReq MSHR hits
system.l2.ReadSharedReq_mshr_misses::.cpu.data          110                       # number of ReadSharedReq MSHR misses
system.l2.ReadSharedReq_mshr_misses::total          110                       # number of ReadSharedReq MSHR misses
system.l2.ReadSharedReq_mshr_miss_latency::.cpu.data      8618500                       # number of ReadSharedReq MSHR miss cycles
system.l2.ReadSharedReq_mshr_miss_latency::total      8618500                       # number of ReadSharedReq MSHR miss cycles
system.l2.ReadSharedReq_mshr_miss_rate::.cpu.data     0.866142                       # mshr miss rate for ReadSharedReq accesses
system.l2.ReadSharedReq_mshr_miss_rate::total     0.866142                       # mshr miss rate for ReadSharedReq accesses
system.l2.ReadSharedReq_avg_mshr_miss_latency::.cpu.data        78350                       # average ReadSharedReq mshr miss latency
system.l2.ReadSharedReq_avg_mshr_miss_latency::total        78350                       # average ReadSharedReq mshr miss latency
system.l2.power_state.pwrStateResidencyTicks::UNDEFINED 174885349000                       # Cumulative time (in ticks) in various power states
system.l2.tags.tagsinuse                 16300.069166                       # Cycle average of tags in use
system.l2.tags.total_refs                     2975226                       # Total number of references to valid blocks.
system.l2.tags.sampled_refs                   1488108                       # Sample count of references to valid blocks.
system.l2.tags.avg_refs                      1.999335                       # Average number of references to valid blocks.
system.l2.tags.warmup_cycle                     77000                       # Cycle when the warmup percentage was hit.
system.l2.tags.occ_blocks::.cpu.inst         5.049440                       # Average occupied blocks per requestor
system.l2.tags.occ_blocks::.cpu.data     16295.019725                       # Average occupied blocks per requestor
system.l2.tags.occ_percent::.cpu.inst        0.000308                       # Average percentage of cache occupancy
system.l2.tags.occ_percent::.cpu.data        0.994569                       # Average percentage of cache occupancy
system.l2.tags.occ_percent::total            0.994877                       # Average percentage of cache occupancy
system.l2.tags.occ_task_id_blocks::1024         16384                       # Occupied blocks per task id
system.l2.tags.age_task_id_blocks_1024::0           85                       # Occupied blocks per task id
system.l2.tags.age_task_id_blocks_1024::1          767                       # Occupied blocks per task id
system.l2.tags.age_task_id_blocks_1024::2         7653                       # Occupied blocks per task id
system.l2.tags.age_task_id_blocks_1024::3         7879                       # Occupied blocks per task id
system.l2.tags.occ_task_id_percent::1024            1                       # Percentage of cache occupancy per task id
system.l2.tags.tag_accesses                 191902828                       # Number of tag accesses
system.l2.tags.data_accesses                191902828                       # Number of data accesses
system.l2.tags.power_state.pwrStateResidencyTicks::UNDEFINED 174885349000                       # Cumulative time (in ticks) in various power states
system.mem_ctrls.avgPriority_.writebacks::samples   1471138.00                       # Average QoS priority value for accepted requests
system.mem_ctrls.avgPriority_.cpu.inst::samples       493.00                       # Average QoS priority value for accepted requests
system.mem_ctrls.avgPriority_.cpu.data::samples   1487615.00                       # Average QoS priority value for accepted requests
system.mem_ctrls.priorityMinLatency      0.000000018750                       # per QoS priority minimum request to response latency (s)
system.mem_ctrls.priorityMaxLatency      0.000088688500                       # per QoS priority maximum request to response latency (s)
system.mem_ctrls.numReadWriteTurnArounds        91920                       # Number of turnarounds from READ to WRITE
system.mem_ctrls.numWriteReadTurnArounds        91920                       # Number of turnarounds from WRITE to READ
system.mem_ctrls.numStayReadState             4397641                       # Number of times bus staying in READ state
system.mem_ctrls.numStayWriteState            1382917                       # Number of times bus staying in WRITE state
system.mem_ctrls.readReqs                     1488108                       # Number of read requests accepted
system.mem_ctrls.writeReqs                    1471138                       # Number of write requests accepted
system.mem_ctrls.readBursts                   1488108                       # Number of controller read bursts, including those serviced by the write queue
system.mem_ctrls.writeBursts                  1471138                       # Number of controller write bursts, including those merged in the write queue
system.mem_ctrls.servicedByWrQ                      0                       # Number of controller read bursts serviced by the write queue
system.mem_ctrls.mergedWrBursts                     0                       # Number of controller write bursts merged with an existing one
system.mem_ctrls.neitherReadNorWriteReqs            0                       # Number of requests that are neither read nor write
system.mem_ctrls.avgRdQLen                       1.00                       # Average read queue length when enqueuing
system.mem_ctrls.avgWrQLen                      25.63                       # Average write queue length when enqueuing
system.mem_ctrls.numRdRetry                         0                       # Number of times read queue was full causing retry
system.mem_ctrls.numWrRetry                         0                       # Number of times write queue was full causing retry
system.mem_ctrls.readPktSize::0                     0                       # Read request sizes (log2)
system.mem_ctrls.readPktSize::1                     0                       # Read request sizes (log2)
system.mem_ctrls.readPktSize::2                     0                       # Read request sizes (log2)
system.mem_ctrls.readPktSize::3                     0                       # Read request sizes (log2)
system.mem_ctrls.readPktSize::4                     0                       # Read request sizes (log2)
system.mem_ctrls.readPktSize::5                     0                       # Read request sizes (log2)
system.mem_ctrls.readPktSize::6               1488108                       # Read request sizes (log2)
system.mem_ctrls.writePktSize::0                    0                       # Write request sizes (log2)
system.mem_ctrls.writePktSize::1                    0                       # Write request sizes (log2)
system.mem_ctrls.writePktSize::2                    0                       # Write request sizes (log2)
system.mem_ctrls.writePktSize::3                    0                       # Write request sizes (log2)
system.mem_ctrls.writePktSize::4                    0                       # Write request sizes (log2)
system.mem_ctrls.writePktSize::5                    0                       # Write request sizes (log2)
system.mem_ctrls.writePktSize::6              1471138                       # Write request sizes (log2)
system.mem_ctrls.rdQLenPdf::0                 1488011                       # What read queue length does an incoming req see
system.mem_ctrls.rdQLenPdf::1                      87                       # What read queue length does an incoming req see
system.mem_ctrls.rdQLenPdf::2                       9                       # What read queue length does an incoming req see
system.mem_ctrls.rdQLenPdf::3                       1                       # What read queue length does an incoming req see
system.mem_ctrls.rdQLenPdf::4                       0                       # What read queue length does an incoming req see
system.mem_ctrls.rdQLenPdf::5                       0                       # What read queue length does an incoming req see
system.mem_ctrls.rdQLenPdf::6                       0                       # What read queue length does an incoming req see
system.mem_ctrls.rdQLenPdf::7                       0                       # What read queue length does an incoming req see
system.mem_ctrls.rdQLenPdf::8                       0                       # What read queue length does an incoming req see
system.mem_ctrls.rdQLenPdf::9                       0                       # What read queue length does an incoming req see
system.mem_ctrls.rdQLenPdf::10                      0                       # What read queue length does an incoming req see
system.mem_ctrls.rdQLenPdf::11                      0                       # What read queue length does an incoming req see
system.mem_ctrls.rdQLenPdf::12                      0                       # What read queue length does an incoming req see
system.mem_ctrls.rdQLenPdf::13                      0                       # What read queue length does an incoming req see
system.mem_ctrls.rdQLenPdf::14                      0                       # What read queue length does an incoming req see
system.mem_ctrls.rdQLenPdf::15                      0                       # What read queue length does an incoming req see
system.mem_ctrls.rdQLenPdf::16                      0                       # What read queue length does an incoming req see
system.mem_ctrls.rdQLenPdf::17                      0                       # What read queue length does an incoming req see
system.mem_ctrls.rdQLenPdf::18                      0                       # What read queue length does an incoming req see
system.mem_ctrls.rdQLenPdf::19                      0                       # What read queue length does an incoming req see
system.mem_ctrls.rdQLenPdf::20                      0                       # What read queue length does an incoming req see
system.mem_ctrls.rdQLenPdf::21                      0                       # What read queue length does an incoming req see
system.mem_ctrls.rdQLenPdf::22                      0                       # What read queue length does an incoming req see
[...]
system.mem_ctrls.dram.bw_inst_read::total       180415                       # Instruction read bandwidth from this memory (bytes/s)
system.mem_ctrls.dram.bw_write::.writebacks    538368894                       # Write bandwidth from this memory (bytes/s)
system.mem_ctrls.dram.bw_write::total       538368894                       # Write bandwidth from this memory (bytes/s)
system.mem_ctrls.dram.bw_total::.writebacks    538368894                       # Total bandwidth to/from this memory (bytes/s)
system.mem_ctrls.dram.bw_total::.cpu.inst       180415                       # Total bandwidth to/from this memory (bytes/s)
system.mem_ctrls.dram.bw_total::.cpu.data    544398719                       # Total bandwidth to/from this memory (bytes/s)
system.mem_ctrls.dram.bw_total::total      1082948029                       # Total bandwidth to/from this memory (bytes/s)
system.mem_ctrls.dram.readBursts              1488108                       # Number of DRAM read bursts
system.mem_ctrls.dram.writeBursts             1471117                       # Number of DRAM write bursts
system.mem_ctrls.dram.perBankRdBursts::0        93065                       # Per bank write bursts
system.mem_ctrls.dram.perBankRdBursts::1        92958                       # Per bank write bursts
system.mem_ctrls.dram.perBankRdBursts::2        92992                       # Per bank write bursts
system.mem_ctrls.dram.perBankRdBursts::3        92938                       # Per bank write bursts
system.mem_ctrls.dram.perBankRdBursts::4        93037                       # Per bank write bursts
system.mem_ctrls.dram.perBankRdBursts::5        93074                       # Per bank write bursts
system.mem_ctrls.dram.perBankRdBursts::6        93061                       # Per bank write bursts
system.mem_ctrls.dram.perBankRdBursts::7        93078                       # Per bank write bursts
system.mem_ctrls.dram.perBankRdBursts::8        93156                       # Per bank write bursts
system.mem_ctrls.dram.perBankRdBursts::9        92949                       # Per bank write bursts
system.mem_ctrls.dram.perBankRdBursts::10        92955                       # Per bank write bursts
system.mem_ctrls.dram.perBankRdBursts::11        92953                       # Per bank write bursts
system.mem_ctrls.dram.perBankRdBursts::12        93000                       # Per bank write bursts
system.mem_ctrls.dram.perBankRdBursts::13        92951                       # Per bank write bursts
system.mem_ctrls.dram.perBankRdBursts::14        92955                       # Per bank write bursts
system.mem_ctrls.dram.perBankRdBursts::15        92986                       # Per bank write bursts
system.mem_ctrls.dram.perBankWrBursts::0        91948                       # Per bank write bursts
system.mem_ctrls.dram.perBankWrBursts::1        91928                       # Per bank write bursts
system.mem_ctrls.dram.perBankWrBursts::2        91919                       # Per bank write bursts
system.mem_ctrls.dram.perBankWrBursts::3        91910                       # Per bank write bursts
system.mem_ctrls.dram.perBankWrBursts::4        91969                       # Per bank write bursts
system.mem_ctrls.dram.perBankWrBursts::5        92032                       # Per bank write bursts
system.mem_ctrls.dram.perBankWrBursts::6        92032                       # Per bank write bursts
system.mem_ctrls.dram.perBankWrBursts::7        92032                       # Per bank write bursts
system.mem_ctrls.dram.perBankWrBursts::8        92016                       # Per bank write bursts
system.mem_ctrls.dram.perBankWrBursts::9        91904                       # Per bank write bursts
system.mem_ctrls.dram.perBankWrBursts::10        91904                       # Per bank write bursts
system.mem_ctrls.dram.perBankWrBursts::11        91904                       # Per bank write bursts
system.mem_ctrls.dram.perBankWrBursts::12        91904                       # Per bank write bursts
system.mem_ctrls.dram.perBankWrBursts::13        91904                       # Per bank write bursts
system.mem_ctrls.dram.perBankWrBursts::14        91904                       # Per bank write bursts
system.mem_ctrls.dram.perBankWrBursts::15        91907                       # Per bank write bursts
system.mem_ctrls.dram.totQLat             14974525000                       # Total ticks spent queuing
system.mem_ctrls.dram.totBusLat            7440540000                       # Total ticks spent in databus transfers
system.mem_ctrls.dram.totMemAccLat        42876550000                       # Total ticks spent from burst creation until serviced by the DRAM
system.mem_ctrls.dram.avgQLat                10062.79                       # Average queueing delay per DRAM burst
system.mem_ctrls.dram.avgBusLat               5000.00                       # Average bus latency per DRAM burst
system.mem_ctrls.dram.avgMemAccLat           28812.79                       # Average memory access latency per DRAM burst
system.mem_ctrls.dram.readRowHits             1367268                       # Number of row buffer hits during reads
system.mem_ctrls.dram.writeRowHits            1376892                       # Number of row buffer hits during writes
system.mem_ctrls.dram.readRowHitRate            91.88                       # Row buffer hit rate for reads
system.mem_ctrls.dram.writeRowHitRate           93.60                       # Row buffer hit rate for writes
system.mem_ctrls.dram.bytesPerActivate::samples       215064                       # Bytes accessed per row activation
system.mem_ctrls.dram.bytesPerActivate::mean   880.621954                       # Bytes accessed per row activation
system.mem_ctrls.dram.bytesPerActivate::gmean   766.221335                       # Bytes accessed per row activation
system.mem_ctrls.dram.bytesPerActivate::stdev   287.097739                       # Bytes accessed per row activation
system.mem_ctrls.dram.bytesPerActivate::0-127        10686      4.97%      4.97% # Bytes accessed per row activation
system.mem_ctrls.dram.bytesPerActivate::128-255         6244      2.90%      7.87% # Bytes accessed per row activation
system.mem_ctrls.dram.bytesPerActivate::256-383         4933      2.29%     10.17% # Bytes accessed per row activation
system.mem_ctrls.dram.bytesPerActivate::384-511         7149      3.32%     13.49% # Bytes accessed per row activation
system.mem_ctrls.dram.bytesPerActivate::512-639         5303      2.47%     15.96% # Bytes accessed per row activation
system.mem_ctrls.dram.bytesPerActivate::640-767         7169      3.33%     19.29% # Bytes accessed per row activation
system.mem_ctrls.dram.bytesPerActivate::768-895         5461      2.54%     21.83% # Bytes accessed per row activation
system.mem_ctrls.dram.bytesPerActivate::896-1023        14819      6.89%     28.72% # Bytes accessed per row activation
system.mem_ctrls.dram.bytesPerActivate::1024-1151       153300     71.28%    100.00% # Bytes accessed per row activation
system.mem_ctrls.dram.bytesPerActivate::total       215064                       # Bytes accessed per row activation
system.mem_ctrls.dram.bytesRead              95238912                       # Total number of bytes read from DRAM
system.mem_ctrls.dram.bytesWritten           94151488                       # Total number of bytes written to DRAM
system.mem_ctrls.dram.avgRdBW              544.579135                       # Average DRAM read bandwidth in MiBytes/s
system.mem_ctrls.dram.avgWrBW              538.361209                       # Average DRAM write bandwidth in MiBytes/s
system.mem_ctrls.dram.peakBW                 12800.00                       # Theoretical peak bandwidth in MiByte/s
system.mem_ctrls.dram.busUtil                    8.46                       # Data bus utilization in percentage
system.mem_ctrls.dram.busUtilRead                4.25                       # Data bus utilization in percentage for reads
system.mem_ctrls.dram.busUtilWrite               4.21                       # Data bus utilization in percentage for writes
system.mem_ctrls.dram.pageHitRate               92.73                       # Row buffer hit rate, read and write combined
system.mem_ctrls.dram.power_state.pwrStateResidencyTicks::UNDEFINED 174885349000                       # Cumulative time (in ticks) in various power states
system.mem_ctrls.dram.rank0.actEnergy       768192600                       # Energy for activate commands per rank (pJ)
system.mem_ctrls.dram.rank0.preEnergy       408304050                       # Energy for precharge commands per rank (pJ)
system.mem_ctrls.dram.rank0.readEnergy     5313609420                       # Energy for read commands per rank (pJ)
system.mem_ctrls.dram.rank0.writeEnergy    3840719400                       # Energy for write commands per rank (pJ)
system.mem_ctrls.dram.rank0.refreshEnergy 13804814400.000002                       # Energy for refresh commands per rank (pJ)
system.mem_ctrls.dram.rank0.actBackEnergy  39995406600                       # Energy for active background per rank (pJ)
system.mem_ctrls.dram.rank0.preBackEnergy  33475632000                       # Energy for precharge background per rank (pJ)
system.mem_ctrls.dram.rank0.actPowerDownEnergy            0                       # Energy for active power-down per rank (pJ)
system.mem_ctrls.dram.rank0.prePowerDownEnergy            0                       # Energy for precharge power-down per rank (pJ)
system.mem_ctrls.dram.rank0.selfRefreshEnergy            0                       # Energy for self refresh per rank (pJ)
system.mem_ctrls.dram.rank0.totalEnergy   97606678470                       # Total energy per rank (pJ)
system.mem_ctrls.dram.rank0.averagePower   558.118099                       # Core power per rank (mW)
system.mem_ctrls.dram.rank0.totalIdleTime            0                       # Total Idle time Per DRAM Rank
system.mem_ctrls.dram.rank0.pwrStateTime::IDLE  85637282500                       # Time in different power states
system.mem_ctrls.dram.rank0.pwrStateTime::REF   5839600000                       # Time in different power states
system.mem_ctrls.dram.rank0.pwrStateTime::SREF            0                       # Time in different power states
system.mem_ctrls.dram.rank0.pwrStateTime::PRE_PDN            0                       # Time in different power states
system.mem_ctrls.dram.rank0.pwrStateTime::ACT  83408466500                       # Time in different power states
system.mem_ctrls.dram.rank0.pwrStateTime::ACT_PDN            0                       # Time in different power states
system.mem_ctrls.dram.rank1.actEnergy       767371500                       # Energy for activate commands per rank (pJ)
system.mem_ctrls.dram.rank1.preEnergy       407863830                       # Energy for precharge commands per rank (pJ)
system.mem_ctrls.dram.rank1.readEnergy     5311481700                       # Energy for read commands per rank (pJ)
system.mem_ctrls.dram.rank1.writeEnergy    3838511340                       # Energy for write commands per rank (pJ)
system.mem_ctrls.dram.rank1.refreshEnergy 13804814400.000002                       # Energy for refresh commands per rank (pJ)
system.mem_ctrls.dram.rank1.actBackEnergy  40026319410                       # Energy for active background per rank (pJ)
system.mem_ctrls.dram.rank1.preBackEnergy  33449600160                       # Energy for precharge background per rank (pJ)
system.mem_ctrls.dram.rank1.actPowerDownEnergy            0                       # Energy for active power-down per rank (pJ)
system.mem_ctrls.dram.rank1.prePowerDownEnergy            0                       # Energy for precharge power-down per rank (pJ)
system.mem_ctrls.dram.rank1.selfRefreshEnergy            0                       # Energy for self refresh per rank (pJ)
system.mem_ctrls.dram.rank1.totalEnergy   97605962340                       # Total energy per rank (pJ)
system.mem_ctrls.dram.rank1.averagePower   558.114004                       # Core power per rank (mW)
system.mem_ctrls.dram.rank1.totalIdleTime            0                       # Total Idle time Per DRAM Rank
system.mem_ctrls.dram.rank1.pwrStateTime::IDLE  85569738250                       # Time in different power states
system.mem_ctrls.dram.rank1.pwrStateTime::REF   5839600000                       # Time in different power states
system.mem_ctrls.dram.rank1.pwrStateTime::SREF            0                       # Time in different power states
system.mem_ctrls.dram.rank1.pwrStateTime::PRE_PDN            0                       # Time in different power states
system.mem_ctrls.dram.rank1.pwrStateTime::ACT  83476010750                       # Time in different power states
system.mem_ctrls.dram.rank1.pwrStateTime::ACT_PDN            0                       # Time in different power states
system.mem_ctrls.power_state.pwrStateResidencyTicks::UNDEFINED 174885349000                       # Cumulative time (in ticks) in various power states
system.membus.trans_dist::ReadResp                603                       # Transaction distribution
system.membus.trans_dist::WritebackDirty      1471138                       # Transaction distribution
system.membus.trans_dist::CleanEvict               79                       # Transaction distribution
system.membus.trans_dist::ReadExReq           1487505                       # Transaction distribution
system.membus.trans_dist::ReadExResp          1487505                       # Transaction distribution
system.membus.trans_dist::ReadSharedReq           603                       # Transaction distribution
system.membus.pkt_count_system.l2.mem_side_port::system.mem_ctrls.port      4447433                       # Packet count per connected requestor and responder (bytes)
system.membus.pkt_count::total                4447433                       # Packet count per connected requestor and responder (bytes)
system.membus.pkt_size_system.l2.mem_side_port::system.mem_ctrls.port    189391744                       # Cumulative packet size per connected requestor and responder (bytes)
system.membus.pkt_size::total               189391744                       # Cumulative packet size per connected requestor and responder (bytes)
system.membus.snoops                                0                       # Total snoops (count)
system.membus.snoopTraffic                          0                       # Total snoop traffic (bytes)
system.membus.snoop_fanout::samples           1488108                       # Request fanout histogram
system.membus.snoop_fanout::mean                    0                       # Request fanout histogram
system.membus.snoop_fanout::stdev                   0                       # Request fanout histogram
system.membus.snoop_fanout::underflows              0      0.00%      0.00% # Request fanout histogram
system.membus.snoop_fanout::0                 1488108    100.00%    100.00% # Request fanout histogram
system.membus.snoop_fanout::1                       0      0.00%    100.00% # Request fanout histogram
system.membus.snoop_fanout::overflows               0      0.00%    100.00% # Request fanout histogram
system.membus.snoop_fanout::min_value               0                       # Request fanout histogram
system.membus.snoop_fanout::max_value               0                       # Request fanout histogram
system.membus.snoop_fanout::total             1488108                       # Request fanout histogram
system.membus.power_state.pwrStateResidencyTicks::UNDEFINED 174885349000                       # Cumulative time (in ticks) in various power states
system.membus.reqLayer0.occupancy          9434299000                       # Layer occupancy (ticks)
system.membus.reqLayer0.utilization               5.4                       # Layer utilization (%)
system.membus.respLayer1.occupancy         7840269000                       # Layer occupancy (ticks)
system.membus.respLayer1.utilization              4.5                       # Layer utilization (%)
system.tol2bus.trans_dist::ReadResp               633                       # Transaction distribution
system.tol2bus.trans_dist::WritebackDirty      2958150                       # Transaction distribution
system.tol2bus.trans_dist::CleanEvict             694                       # Transaction distribution
system.tol2bus.trans_dist::ReadExReq          1487506                       # Transaction distribution
system.tol2bus.trans_dist::ReadExResp         1487505                       # Transaction distribution
system.tol2bus.trans_dist::ReadCleanReq           506                       # Transaction distribution
system.tol2bus.trans_dist::ReadSharedReq          127                       # Transaction distribution
system.tol2bus.pkt_count_system.cpu.icache.mem_side_port::system.l2.cpu_side_port         1012                       # Packet count per connected requestor and responder (bytes)
system.tol2bus.pkt_count_system.cpu.dcache.mem_side_port::system.l2.cpu_side_port      4462385                       # Packet count per connected requestor and responder (bytes)
system.tol2bus.pkt_count::total               4463397                       # Packet count per connected requestor and responder (bytes)
system.tol2bus.pkt_size_system.cpu.icache.mem_side_port::system.l2.cpu_side_port        32384                       # Cumulative packet size per connected requestor and responder (bytes)
system.tol2bus.pkt_size_system.cpu.dcache.mem_side_port::system.l2.cpu_side_port    190377216                       # Cumulative packet size per connected requestor and responder (bytes)
system.tol2bus.pkt_size::total              190409600                       # Cumulative packet size per connected requestor and responder (bytes)
system.tol2bus.snoops                         1471724                       # Total snoops (count)
system.tol2bus.snoopTraffic                  94152832                       # Total snoop traffic (bytes)
system.tol2bus.snoop_fanout::samples          2959863                       # Request fanout histogram
system.tol2bus.snoop_fanout::mean            0.000182                       # Request fanout histogram
system.tol2bus.snoop_fanout::stdev           0.013506                       # Request fanout histogram
system.tol2bus.snoop_fanout::underflows             0      0.00%      0.00% # Request fanout histogram
system.tol2bus.snoop_fanout::0                2959326     99.98%     99.98% # Request fanout histogram
system.tol2bus.snoop_fanout::1                    536      0.02%    100.00% # Request fanout histogram
system.tol2bus.snoop_fanout::2                      1      0.00%    100.00% # Request fanout histogram
system.tol2bus.snoop_fanout::overflows              0      0.00%    100.00% # Request fanout histogram
system.tol2bus.snoop_fanout::min_value              0                       # Request fanout histogram
system.tol2bus.snoop_fanout::max_value              2                       # Request fanout histogram
system.tol2bus.snoop_fanout::total            2959863                       # Request fanout histogram
system.tol2bus.power_state.pwrStateResidencyTicks::UNDEFINED 174885349000                       # Cumulative time (in ticks) in various power states
system.tol2bus.reqLayer0.occupancy         2974641500                       # Layer occupancy (ticks)
system.tol2bus.reqLayer0.utilization              1.7                       # Layer utilization (%)
system.tol2bus.respLayer0.occupancy            759000                       # Layer occupancy (ticks)
system.tol2bus.respLayer0.utilization             0.0                       # Layer utilization (%)
system.tol2bus.respLayer1.occupancy        2231449497                       # Layer occupancy (ticks)
system.tol2bus.respLayer1.utilization             1.3                       # Layer utilization (%)
system.voltage_domain.voltage                       1                       # Voltage in Volts

---------- End Simulation Statistics   ----------
