
---------- Begin Simulation Statistics ----------
final_tick                                65442355500                       # Number of ticks from beginning of simulation (restored from checkpoints and never reset)
host_inst_rate                                 260629                       # Simulator instruction rate (inst/s)
host_mem_usage                                 661100                       # Number of bytes of host memory used
host_op_rate                                   285211                       # Simulator op (including micro ops) rate (op/s)
host_seconds                                   383.69                       # Real time elapsed on the host
host_tick_rate                              170561857                       # Simulator tick rate (ticks/s)
sim_freq                                 1000000000000                       # Frequency of simulated ticks
sim_insts                                   100000000                       # Number of instructions simulated
sim_ops                                     109431867                       # Number of ops (including micro ops) simulated
sim_seconds                                  0.065442                       # Number of seconds simulated
sim_ticks                                 65442355500                       # Number of ticks simulated
system.cpu.committedInsts                   100000000                       # Number of instructions committed
system.cpu.committedOps                     109431867                       # Number of ops (including micro ops) committed
system.cpu.cpi                               1.308847                       # CPI: cycles per instruction
system.cpu.discardedOps                        691694                       # Number of ops (including micro ops) which were discarded before commit
system.cpu.idleCycles                        14612857                       # Total number of cycles that the object has spent stopped
system.cpu.ipc                               0.764031                       # IPC: instructions per cycle
system.cpu.numCycles                        130884711                       # number of cpu cycles simulated
system.cpu.numFetchSuspends                         0                       # Number of times Execute suspended instruction fetching
system.cpu.numWorkItemsCompleted                    0                       # number of work items this cpu completed
system.cpu.numWorkItemsStarted                      0                       # number of work items this cpu started
system.cpu.op_class_0::No_OpClass                   0      0.00%      0.00% # Class of committed instruction
system.cpu.op_class_0::IntAlu                72954855     66.67%     66.67% # Class of committed instruction
system.cpu.op_class_0::IntMult                 568365      0.52%     67.19% # Class of committed instruction
system.cpu.op_class_0::IntDiv                       0      0.00%     67.19% # Class of committed instruction
system.cpu.op_class_0::FloatAdd                     0      0.00%     67.19% # Class of committed instruction
system.cpu.op_class_0::FloatCmp                     0      0.00%     67.19% # Class of committed instruction
system.cpu.op_class_0::FloatCvt                     0      0.00%     67.19% # Class of committed instruction
system.cpu.op_class_0::FloatMult                    0      0.00%     67.19% # Class of committed instruction
system.cpu.op_class_0::FloatMultAcc                 0      0.00%     67.19% # Class of committed instruction
system.cpu.op_class_0::FloatDiv                     0      0.00%     67.19% # Class of committed instruction
system.cpu.op_class_0::FloatMisc                    0      0.00%     67.19% # Class of committed instruction
system.cpu.op_class_0::FloatSqrt                    0      0.00%     67.19% # Class of committed instruction
system.cpu.op_class_0::SimdAdd                 241252      0.22%     67.41% # Class of committed instruction
system.cpu.op_class_0::SimdAddAcc                   0      0.00%     67.41% # Class of committed instruction
system.cpu.op_class_0::SimdAlu                 154720      0.14%     67.55% # Class of committed instruction
system.cpu.op_class_0::SimdCmp                 120626      0.11%     67.66% # Class of committed instruction
system.cpu.op_class_0::SimdCvt                      0      0.00%     67.66% # Class of committed instruction
system.cpu.op_class_0::SimdMisc                 44544      0.04%     67.70% # Class of committed instruction
system.cpu.op_class_0::SimdMult                     0      0.00%     67.70% # Class of committed instruction
system.cpu.op_class_0::SimdMultAcc                  0      0.00%     67.70% # Class of committed instruction
system.cpu.op_class_0::SimdShift                    0      0.00%     67.70% # Class of committed instruction
system.cpu.op_class_0::SimdShiftAcc                 0      0.00%     67.70% # Class of committed instruction
system.cpu.op_class_0::SimdDiv                      0      0.00%     67.70% # Class of committed instruction
system.cpu.op_class_0::SimdSqrt                     0      0.00%     67.70% # Class of committed instruction
system.cpu.op_class_0::SimdFloatAdd                 0      0.00%     67.70% # Class of committed instruction
system.cpu.op_class_0::SimdFloatAlu                 0      0.00%     67.70% # Class of committed instruction
system.cpu.op_class_0::SimdFloatCmp                 0      0.00%     67.70% # Class of committed instruction
system.cpu.op_class_0::SimdFloatCvt                 0      0.00%     67.70% # Class of committed instruction
system.cpu.op_class_0::SimdFloatDiv                 0      0.00%     67.70% # Class of committed instruction
system.cpu.op_class_0::SimdFloatMisc           166465      0.15%     67.85% # Class of committed instruction
system.cpu.op_class_0::SimdFloatMult                0      0.00%     67.85% # Class of committed instruction
system.cpu.op_class_0::SimdFloatMultAcc             0      0.00%     67.85% # Class of committed instruction
system.cpu.op_class_0::SimdFloatSqrt                0      0.00%     67.85% # Class of committed instruction
system.cpu.op_class_0::SimdReduceAdd                0      0.00%     67.85% # Class of committed instruction
system.cpu.op_class_0::SimdReduceAlu                0      0.00%     67.85% # Class of committed instruction
system.cpu.op_class_0::SimdReduceCmp                0      0.00%     67.85% # Class of committed instruction
system.cpu.op_class_0::SimdFloatReduceAdd            0      0.00%     67.85% # Class of committed instruction
system.cpu.op_class_0::SimdFloatReduceCmp            0      0.00%     67.85% # Class of committed instruction
system.cpu.op_class_0::SimdAes                      0      0.00%     67.85% # Class of committed instruction
system.cpu.op_class_0::SimdAesMix                   0      0.00%     67.85% # Class of committed instruction
system.cpu.op_class_0::SimdSha1Hash                 0      0.00%     67.85% # Class of committed instruction
system.cpu.op_class_0::SimdSha1Hash2                0      0.00%     67.85% # Class of committed instruction
system.cpu.op_class_0::SimdSha256Hash               0      0.00%     67.85% # Class of committed instruction
system.cpu.op_class_0::SimdSha256Hash2              0      0.00%     67.85% # Class of committed instruction
system.cpu.op_class_0::SimdShaSigma2                0      0.00%     67.85% # Class of committed instruction
system.cpu.op_class_0::SimdShaSigma3                0      0.00%     67.85% # Class of committed instruction
system.cpu.op_class_0::SimdPredAlu                  0      0.00%     67.85% # Class of committed instruction
system.cpu.op_class_0::MemRead               20646356     18.87%     86.72% # Class of committed instruction
system.cpu.op_class_0::MemWrite              14534684     13.28%    100.00% # Class of committed instruction
system.cpu.op_class_0::FloatMemRead                 0      0.00%    100.00% # Class of committed instruction
system.cpu.op_class_0::FloatMemWrite                0      0.00%    100.00% # Class of committed instruction
system.cpu.op_class_0::IprAccess                    0      0.00%    100.00% # Class of committed instruction
system.cpu.op_class_0::InstPrefetch                 0      0.00%    100.00% # Class of committed instruction
system.cpu.op_class_0::total                109431867                       # Class of committed instruction
system.cpu.tickCycles                       116271854                       # Number of cycles that the object actually ticked
system.cpu.workload.numSyscalls                    86                       # Number of system calls
system.membus.snoop_filter.hit_multi_requests            0                       # Number of requests hitting in the snoop filter with multiple (>1) holders of the requested data.
system.membus.snoop_filter.hit_multi_snoops            0                       # Number of snoops hitting in the snoop filter with multiple (>1) holders of the requested data.
system.membus.snoop_filter.hit_single_requests        37753                       # Number of requests hitting in the snoop filter with a single holder of the requested data.
system.membus.snoop_filter.hit_single_snoops            0                       # Number of snoops hitting in the snoop filter with a single holder of the requested data.
system.membus.snoop_filter.tot_requests         84090                       # Total number of requests made to the snoop filter.
system.membus.snoop_filter.tot_snoops               0                       # Total number of snoops made to the snoop filter.
system.tol2bus.snoop_filter.hit_multi_requests          127                       # Number of requests hitting in the snoop filter with multiple (>1) holders of the requested data.
system.tol2bus.snoop_filter.hit_multi_snoops           10                       # Number of snoops hitting in the snoop filter with multiple (>1) holders of the requested data.
system.tol2bus.snoop_filter.hit_single_requests       732538                       # Number of requests hitting in the snoop filter with a single holder of the requested data.
system.tol2bus.snoop_filter.hit_single_snoops          447                       # Number of snoops hitting in the snoop filter with a single holder of the requested data.
system.tol2bus.snoop_filter.tot_requests      1465978                       # Total number of requests made to the snoop filter.
system.tol2bus.snoop_filter.tot_snoops            457                       # Total number of snoops made to the snoop filter.
system.clk_domain.clock                          1000                       # Clock period in ticks
system.cpu.branchPred.lookups                20405553                       # Number of BP lookups
system.cpu.branchPred.condPredicted          16342623                       # Number of conditional branches predicted
system.cpu.branchPred.condIncorrect            142553                       # Number of conditional branches incorrect
system.cpu.branchPred.BTBLookups              8782171                       # Number of BTB lookups
system.cpu.branchPred.BTBHits                 8691531                       # Number of BTB hits
system.cpu.branchPred.BTBHitPct             98.967909                       # BTB Hit Percentage
system.cpu.branchPred.RASUsed                 1050601                       # Number of times the RAS was used to get a target.
system.cpu.branchPred.RASIncorrect                313                       # Number of incorrect RAS predictions.
system.cpu.branchPred.indirectLookups          433994                       # Number of indirect predictor lookups.
system.cpu.branchPred.indirectHits             300039                       # Number of indirect target hits.
system.cpu.branchPred.indirectMisses           133955                       # Number of indirect misses.
system.cpu.branchPred.indirectMispredicted         1038                       # Number of mispredicted indirect branches.
system.cpu.dcache.demand_hits::.cpu.data     35643189                       # number of demand (read+write) hits
system.cpu.dcache.demand_hits::total         35643189                       # number of demand (read+write) hits
system.cpu.dcache.overall_hits::.cpu.data     35646487                       # number of overall hits
system.cpu.dcache.overall_hits::total        35646487                       # number of overall hits
system.cpu.dcache.demand_misses::.cpu.data        88499                       # number of demand (read+write) misses
system.cpu.dcache.demand_misses::total          88499                       # number of demand (read+write) misses
system.cpu.dcache.overall_misses::.cpu.data        88562                       # number of overall misses
system.cpu.dcache.overall_misses::total         88562                       # number of overall misses
system.cpu.dcache.demand_miss_latency::.cpu.data   5243712500                       # number of demand (read+write) miss cycles
system.cpu.dcache.demand_miss_latency::total   5243712500                       # number of demand (read+write) miss cycles
system.cpu.dcache.overall_miss_latency::.cpu.data   5243712500                       # number of overall miss cycles
system.cpu.dcache.overall_miss_latency::total   5243712500                       # number of overall miss cycles
system.cpu.dcache.demand_accesses::.cpu.data     35731688                       # number of demand (read+write) accesses
system.cpu.dcache.demand_accesses::total     35731688                       # number of demand (read+write) accesses
system.cpu.dcache.overall_accesses::.cpu.data     35735049                       # number of overall (read+write) accesses
system.cpu.dcache.overall_accesses::total     35735049                       # number of overall (read+write) accesses
system.cpu.dcache.demand_miss_rate::.cpu.data     0.002477                       # miss rate for demand accesses
system.cpu.dcache.demand_miss_rate::total     0.002477                       # miss rate for demand accesses
system.cpu.dcache.overall_miss_rate::.cpu.data     0.002478                       # miss rate for overall accesses
system.cpu.dcache.overall_miss_rate::total     0.002478                       # miss rate for overall accesses
system.cpu.dcache.demand_avg_miss_latency::.cpu.data 59251.658211                       # average overall miss latency
system.cpu.dcache.demand_avg_miss_latency::total 59251.658211                       # average overall miss latency
system.cpu.dcache.overall_avg_miss_latency::.cpu.data 59209.508593                       # average overall miss latency
system.cpu.dcache.overall_avg_miss_latency::total 59209.508593                       # average overall miss latency
system.cpu.dcache.blocked_cycles::no_mshrs            0                       # number of cycles access was blocked
system.cpu.dcache.blocked_cycles::no_targets            0                       # number of cycles access was blocked
system.cpu.dcache.blocked::no_mshrs                 0                       # number of cycles access was blocked
system.cpu.dcache.blocked::no_targets               0                       # number of cycles access was blocked
system.cpu.dcache.avg_blocked_cycles::no_mshrs          nan                       # average number of cycles each access was blocked
system.cpu.dcache.avg_blocked_cycles::no_targets          nan                       # average number of cycles each access was blocked
system.cpu.dcache.writebacks::.writebacks        56438                       # number of writebacks
system.cpu.dcache.writebacks::total             56438                       # number of writebacks
system.cpu.dcache.demand_mshr_hits::.cpu.data        24018                       # number of demand (read+write) MSHR hits
system.cpu.dcache.demand_mshr_hits::total        24018                       # number of demand (read+write) MSHR hits
system.cpu.dcache.overall_mshr_hits::.cpu.data        24018                       # number of overall MSHR hits
system.cpu.dcache.overall_mshr_hits::total        24018                       # number of overall MSHR hits
system.cpu.dcache.demand_mshr_misses::.cpu.data        64481                       # number of demand (read+write) MSHR misses
system.cpu.dcache.demand_mshr_misses::total        64481                       # number of demand (read+write) MSHR misses
system.cpu.dcache.overall_mshr_misses::.cpu.data        64538                       # number of overall MSHR misses
system.cpu.dcache.overall_mshr_misses::total        64538                       # number of overall MSHR misses
system.cpu.dcache.demand_mshr_miss_latency::.cpu.data   4013735500                       # number of demand (read+write) MSHR miss cycles
system.cpu.dcache.demand_mshr_miss_latency::total   4013735500                       # number of demand (read+write) MSHR miss cycles
system.cpu.dcache.overall_mshr_miss_latency::.cpu.data   4015508500                       # number of overall MSHR miss cycles
system.cpu.dcache.overall_mshr_miss_latency::total   4015508500                       # number of overall MSHR miss cycles
system.cpu.dcache.demand_mshr_miss_rate::.cpu.data     0.001805                       # mshr miss rate for demand accesses
system.cpu.dcache.demand_mshr_miss_rate::total     0.001805                       # mshr miss rate for demand accesses
system.cpu.dcache.overall_mshr_miss_rate::.cpu.data     0.001806                       # mshr miss rate for overall accesses
system.cpu.dcache.overall_mshr_miss_rate::total     0.001806                       # mshr miss rate for overall accesses
system.cpu.dcache.demand_avg_mshr_miss_latency::.cpu.data 62246.793629                       # average overall mshr miss latency
system.cpu.dcache.demand_avg_mshr_miss_latency::total 62246.793629                       # average overall mshr miss latency
system.cpu.dcache.overall_avg_mshr_miss_latency::.cpu.data 62219.289411                       # average overall mshr miss latency
system.cpu.dcache.overall_avg_mshr_miss_latency::total 62219.289411                       # average overall mshr miss latency
system.cpu.dcache.replacements                  64026                       # number of replacements
system.cpu.dcache.ReadReq_hits::.cpu.data     21447065                       # number of ReadReq hits
system.cpu.dcache.ReadReq_hits::total        21447065                       # number of ReadReq hits
system.cpu.dcache.ReadReq_misses::.cpu.data        29996                       # number of ReadReq misses
system.cpu.dcache.ReadReq_misses::total         29996                       # number of ReadReq misses
system.cpu.dcache.ReadReq_miss_latency::.cpu.data    964187000                       # number of ReadReq miss cycles
system.cpu.dcache.ReadReq_miss_latency::total    964187000                       # number of ReadReq miss cycles
system.cpu.dcache.ReadReq_accesses::.cpu.data     21477061                       # number of ReadReq accesses(hits+misses)
system.cpu.dcache.ReadReq_accesses::total     21477061                       # number of ReadReq accesses(hits+misses)
system.cpu.dcache.ReadReq_miss_rate::.cpu.data     0.001397                       # miss rate for ReadReq accesses
system.cpu.dcache.ReadReq_miss_rate::total     0.001397                       # miss rate for ReadReq accesses
system.cpu.dcache.ReadReq_avg_miss_latency::.cpu.data 32143.852514                       # average ReadReq miss latency
system.cpu.dcache.ReadReq_avg_miss_latency::total 32143.852514                       # average ReadReq miss latency
system.cpu.dcache.ReadReq_mshr_hits::.cpu.data         6322                       # number of ReadReq MSHR hits
system.cpu.dcache.ReadReq_mshr_hits::total         6322                       # number of ReadReq MSHR hits
system.cpu.dcache.ReadReq_mshr_misses::.cpu.data        23674                       # number of ReadReq MSHR misses
system.cpu.dcache.ReadReq_mshr_misses::total        23674                       # number of ReadReq MSHR misses
system.cpu.dcache.ReadReq_mshr_miss_latency::.cpu.data    845270500                       # number of ReadReq MSHR miss cycles
system.cpu.dcache.ReadReq_mshr_miss_latency::total    845270500                       # number of ReadReq MSHR miss cycles
system.cpu.dcache.ReadReq_mshr_miss_rate::.cpu.data     0.001102                       # mshr miss rate for ReadReq accesses
system.cpu.dcache.ReadReq_mshr_miss_rate::total     0.001102                       # mshr miss rate for ReadReq accesses
system.cpu.dcache.ReadReq_avg_mshr_miss_latency::.cpu.data 35704.591535                       # average ReadReq mshr miss latency
system.cpu.dcache.ReadReq_avg_mshr_miss_latency::total 35704.591535                       # average ReadReq mshr miss latency
system.cpu.dcache.WriteReq_hits::.cpu.data     14196124                       # number of WriteReq hits
system.cpu.dcache.WriteReq_hits::total       14196124                       # number of WriteReq hits
system.cpu.dcache.WriteReq_misses::.cpu.data        58503                       # number of WriteReq misses
system.cpu.dcache.WriteReq_misses::total        58503                       # number of WriteReq misses
system.cpu.dcache.WriteReq_miss_latency::.cpu.data   4279525500                       # number of WriteReq miss cycles
system.cpu.dcache.WriteReq_miss_latency::total   4279525500                       # number of WriteReq miss cycles
system.cpu.dcache.WriteReq_accesses::.cpu.data     14254627                       # number of WriteReq accesses(hits+misses)
system.cpu.dcache.WriteReq_accesses::total     14254627                       # number of WriteReq accesses(hits+misses)
system.cpu.dcache.WriteReq_miss_rate::.cpu.data     0.004104                       # miss rate for WriteReq accesses
system.cpu.dcache.WriteReq_miss_rate::total     0.004104                       # miss rate for WriteReq accesses
system.cpu.dcache.WriteReq_avg_miss_latency::.cpu.data 73150.530742                       # average WriteReq miss latency
system.cpu.dcache.WriteReq_avg_miss_latency::total 73150.530742                       # average WriteReq miss latency
system.cpu.dcache.WriteReq_mshr_hits::.cpu.data        17696                       # number of WriteReq MSHR hits
system.cpu.dcache.WriteReq_mshr_hits::total        17696                       # number of WriteReq MSHR hits
system.cpu.dcache.WriteReq_mshr_misses::.cpu.data        40807                       # number of WriteReq MSHR misses
system.cpu.dcache.WriteReq_mshr_misses::total        40807                       # number of WriteReq MSHR misses
system.cpu.dcache.WriteReq_mshr_miss_latency::.cpu.data   3168465000                       # number of WriteReq MSHR miss cycles
system.cpu.dcache.WriteReq_mshr_miss_latency::total   3168465000                       # number of WriteReq MSHR miss cycles
system.cpu.dcache.WriteReq_mshr_miss_rate::.cpu.data     0.002863                       # mshr miss rate for WriteReq accesses
system.cpu.dcache.WriteReq_mshr_miss_rate::total     0.002863                       # mshr miss rate for WriteReq accesses
system.cpu.dcache.WriteReq_avg_mshr_miss_latency::.cpu.data 77645.134413                       # average WriteReq mshr miss latency
system.cpu.dcache.WriteReq_avg_mshr_miss_latency::total 77645.134413                       # average WriteReq mshr miss latency
system.cpu.dcache.SoftPFReq_hits::.cpu.data         3298                       # number of SoftPFReq hits
system.cpu.dcache.SoftPFReq_hits::total          3298                       # number of SoftPFReq hits
system.cpu.dcache.SoftPFReq_misses::.cpu.data           63                       # number of SoftPFReq misses
system.cpu.dcache.SoftPFReq_misses::total           63                       # number of SoftPFReq misses
system.cpu.dcache.SoftPFReq_accesses::.cpu.data         3361                       # number of SoftPFReq accesses(hits+misses)
system.cpu.dcache.SoftPFReq_accesses::total         3361                       # number of SoftPFReq accesses(hits+misses)
system.cpu.dcache.SoftPFReq_miss_rate::.cpu.data     0.018744                       # miss rate for SoftPFReq accesses
system.cpu.dcache.SoftPFReq_miss_rate::total     0.018744                       # miss rate for SoftPFReq accesses
system.cpu.dcache.SoftPFReq_mshr_misses::.cpu.data           57                       # number of SoftPFReq MSHR misses
system.cpu.dcache.SoftPFReq_mshr_misses::total           57                       # number of SoftPFReq MSHR misses
system.cpu.dcache.SoftPFReq_mshr_miss_latency::.cpu.data      1773000                       # number of SoftPFReq MSHR miss cycles
system.cpu.dcache.SoftPFReq_mshr_miss_latency::total      1773000                       # number of SoftPFReq MSHR miss cycles
system.cpu.dcache.SoftPFReq_mshr_miss_rate::.cpu.data     0.016959                       # mshr miss rate for SoftPFReq accesses
system.cpu.dcache.SoftPFReq_mshr_miss_rate::total     0.016959                       # mshr miss rate for SoftPFReq accesses
system.cpu.dcache.SoftPFReq_avg_mshr_miss_latency::.cpu.data 31105.263158                       # average SoftPFReq mshr miss latency
system.cpu.dcache.SoftPFReq_avg_mshr_miss_latency::total 31105.263158                       # average SoftPFReq mshr miss latency
system.cpu.dcache.LoadLockedReq_hits::.cpu.data        89082                       # number of LoadLockedReq hits
system.cpu.dcache.LoadLockedReq_hits::total        89082                       # number of LoadLockedReq hits
system.cpu.dcache.LoadLockedReq_accesses::.cpu.data        89082                       # number of LoadLockedReq accesses(hits+misses)
system.cpu.dcache.LoadLockedReq_accesses::total        89082                       # number of LoadLockedReq accesses(hits+misses)
system.cpu.dcache.StoreCondReq_hits::.cpu.data        89082                       # number of StoreCondReq hits
system.cpu.dcache.StoreCondReq_hits::total        89082                       # number of StoreCondReq hits
system.cpu.dcache.StoreCondReq_accesses::.cpu.data        89082                       # number of StoreCondReq accesses(hits+misses)
system.cpu.dcache.StoreCondReq_accesses::total        89082                       # number of StoreCondReq accesses(hits+misses)
system.cpu.dcache.power_state.pwrStateResidencyTicks::UNDEFINED  65442355500                       # Cumulative time (in ticks) in various power states
system.cpu.dcache.tags.tagsinuse           511.149588                       # Cycle average of tags in use
system.cpu.dcache.tags.total_refs            35889189                       # Total number of references to valid blocks.
system.cpu.dcache.tags.sampled_refs             64538                       # Sample count of references to valid blocks.
system.cpu.dcache.tags.avg_refs            556.093914                       # Average number of references to valid blocks.
system.cpu.dcache.tags.warmup_cycle            195500                       # Cycle when the warmup percentage was hit.
system.cpu.dcache.tags.occ_blocks::.cpu.data   511.149588                       # Average occupied blocks per requestor
system.cpu.dcache.tags.occ_percent::.cpu.data     0.998339                       # Average percentage of cache occupancy
system.cpu.dcache.tags.occ_percent::total     0.998339                       # Average percentage of cache occupancy
system.cpu.dcache.tags.occ_task_id_blocks::1024          512                       # Occupied blocks per task id
system.cpu.dcache.tags.age_task_id_blocks_1024::0            6                       # Occupied blocks per task id
system.cpu.dcache.tags.age_task_id_blocks_1024::1           54                       # Occupied blocks per task id
system.cpu.dcache.tags.age_task_id_blocks_1024::2          348                       # Occupied blocks per task id
system.cpu.dcache.tags.age_task_id_blocks_1024::3           79                       # Occupied blocks per task id
system.cpu.dcache.tags.age_task_id_blocks_1024::4           25                       # Occupied blocks per task id
system.cpu.dcache.tags.occ_task_id_percent::1024            1                       # Percentage of cache occupancy per task id
system.cpu.dcache.tags.tag_accesses          71890964                       # Number of tag accesses
system.cpu.dcache.tags.data_accesses         71890964                       # Number of data accesses
system.cpu.dcache.tags.power_state.pwrStateResidencyTicks::UNDEFINED  65442355500                       # Cumulative time (in ticks) in various power states
system.cpu.dtb.instHits                             0                       # ITB inst hits
system.cpu.dtb.instMisses                           0                       # ITB inst misses
system.cpu.dtb.readHits                             0                       # DTB read hits
system.cpu.dtb.readMisses                           0                       # DTB read misses
system.cpu.dtb.writeHits                            0                       # DTB write hits
system.cpu.dtb.writeMisses                          0                       # DTB write misses
system.cpu.dtb.inserts                              0                       # Number of times an entry is inserted into the TLB
system.cpu.dtb.flushTlb                             0                       # Number of times complete TLB was flushed
system.cpu.dtb.flushTlbMva                          0                       # Number of times TLB was flushed by MVA
system.cpu.dtb.flushTlbMvaAsid                      0                       # Number of times TLB was flushed by MVA & ASID
system.cpu.dtb.flushTlbAsid                         0                       # Number of times TLB was flushed by ASID
system.cpu.dtb.flushedEntries                       0                       # Number of entries that have been flushed from TLB
system.cpu.dtb.alignFaults                          0                       # Number of TLB faults due to alignment restrictions
system.cpu.dtb.prefetchFaults                       0                       # Number of TLB faults due to prefetch
system.cpu.dtb.domainFaults                         0                       # Number of TLB faults due to domain restrictions
system.cpu.dtb.permsFaults                          0                       # Number of TLB faults due to permissions restrictions
system.cpu.dtb.readAccesses                         0                       # DTB read accesses
system.cpu.dtb.writeAccesses                        0                       # DTB write accesses
system.cpu.dtb.instAccesses                         0                       # ITB inst accesses
system.cpu.dtb.hits                                 0                       # Total TLB (inst and data) hits
system.cpu.dtb.misses                               0                       # Total TLB (inst and data) misses
system.cpu.dtb.accesses                             0                       # Total TLB (inst and data) accesses
system.cpu.dtb.stage2_mmu.stage2_tlb.instHits            0                       # ITB inst hits
system.cpu.dtb.stage2_mmu.stage2_tlb.instMisses            0                       # ITB inst misses
system.cpu.dtb.stage2_mmu.stage2_tlb.readHits            0                       # DTB read hits
system.cpu.dtb.stage2_mmu.stage2_tlb.readMisses            0                       # DTB read misses
system.cpu.dtb.stage2_mmu.stage2_tlb.writeHits            0                       # DTB write hits
system.cpu.dtb.stage2_mmu.stage2_tlb.writeMisses            0                       # DTB write misses
system.cpu.dtb.stage2_mmu.stage2_tlb.inserts            0                       # Number of times an entry is inserted into the TLB
system.cpu.dtb.stage2_mmu.stage2_tlb.flushTlb            0                       # Number of times complete TLB was flushed
system.cpu.dtb.stage2_mmu.stage2_tlb.flushTlbMva            0                       # Number of times TLB was flushed by MVA
system.cpu.dtb.stage2_mmu.stage2_tlb.flushTlbMvaAsid            0                       # Number of times TLB was flushed by MVA & ASID
system.cpu.dtb.stage2_mmu.stage2_tlb.flushTlbAsid            0                       # Number of times TLB was flushed by ASID
system.cpu.dtb.stage2_mmu.stage2_tlb.flushedEntries            0                       # Number of entries that have been flushed from TLB
system.cpu.dtb.stage2_mmu.stage2_tlb.alignFaults            0                       # Number of TLB faults due to alignment restrictions
system.cpu.dtb.stage2_mmu.stage2_tlb.prefetchFaults            0                       # Number of TLB faults due to prefetch
system.cpu.dtb.stage2_mmu.stage2_tlb.domainFaults            0                       # Number of TLB faults due to domain restrictions
system.cpu.dtb.stage2_mmu.stage2_tlb.permsFaults            0                       # Number of TLB faults due to permissions restrictions
system.cpu.dtb.stage2_mmu.stage2_tlb.readAccesses            0                       # DTB read accesses
system.cpu.dtb.stage2_mmu.stage2_tlb.writeAccesses            0                       # DTB write accesses
system.cpu.dtb.stage2_mmu.stage2_tlb.instAccesses            0                       # ITB inst accesses
system.cpu.dtb.stage2_mmu.stage2_tlb.hits            0                       # Total TLB (inst and data) hits
system.cpu.dtb.stage2_mmu.stage2_tlb.misses            0                       # Total TLB (inst and data) misses
system.cpu.dtb.stage2_mmu.stage2_tlb.accesses            0                       # Total TLB (inst and data) accesses
system.cpu.dtb.stage2_mmu.stage2_tlb.walker.walks            0                       # Table walker walks requested
system.cpu.dtb.stage2_mmu.stage2_tlb.walker.requestOrigin_Requested::Data            0                       # Table walker requests started/completed, data/inst
system.cpu.dtb.stage2_mmu.stage2_tlb.walker.requestOrigin_Requested::Inst            0                       # Table walker requests started/completed, data/inst
system.cpu.dtb.stage2_mmu.stage2_tlb.walker.requestOrigin_Requested::total            0                       # Table walker requests started/completed, data/inst
system.cpu.dtb.stage2_mmu.stage2_tlb.walker.requestOrigin_Completed::Data            0                       # Table walker requests started/completed, data/inst
system.cpu.dtb.stage2_mmu.stage2_tlb.walker.requestOrigin_Completed::Inst            0                       # Table walker requests started/completed, data/inst
system.cpu.dtb.stage2_mmu.stage2_tlb.walker.requestOrigin_Completed::total            0                       # Table walker requests started/completed, data/inst
system.cpu.dtb.stage2_mmu.stage2_tlb.walker.requestOrigin::total            0                       # Table walker requests started/completed, data/inst
system.cpu.dtb.stage2_mmu.stage2_tlb.walker.power_state.pwrStateResidencyTicks::UNDEFINED  65442355500                       # Cumulative time (in ticks) in various power states
system.cpu.dtb.walker.walks                         0                       # Table walker walks requested
system.cpu.dtb.walker.requestOrigin_Requested::Data            0                       # Table walker requests started/completed, data/inst
system.cpu.dtb.walker.requestOrigin_Requested::Inst            0                       # Table walker requests started/completed, data/inst
system.cpu.dtb.walker.requestOrigin_Requested::total            0                       # Table walker requests started/completed, data/inst
system.cpu.dtb.walker.requestOrigin_Completed::Data            0                       # Table walker requests started/completed, data/inst
system.cpu.dtb.walker.requestOrigin_Completed::Inst            0                       # Table walker requests started/completed, data/inst
system.cpu.dtb.walker.requestOrigin_Completed::total            0                       # Table walker requests started/completed, data/inst
system.cpu.dtb.walker.requestOrigin::total            0                       # Table walker requests started/completed, data/inst
system.cpu.dtb.walker.power_state.pwrStateResidencyTicks::UNDEFINED  65442355500                       # Cumulative time (in ticks) in various power states
system.cpu.fetch2.intInstructions            49599151                       # Number of integer instructions successfully decoded
system.cpu.fetch2.fpInstructions                    0                       # Number of floating point instructions successfully decoded
system.cpu.fetch2.vecInstructions                   0                       # Number of SIMD instructions successfully decoded
system.cpu.fetch2.loadInstructions           17151218                       # Number of memory load instructions successfully decoded
system.cpu.fetch2.storeInstructions           9897528                       # Number of memory store instructions successfully decoded
system.cpu.fetch2.amoInstructions                   0                       # Number of memory atomic instructions successfully decoded
system.cpu.icache.demand_hits::.cpu.inst     27660834                       # number of demand (read+write) hits
system.cpu.icache.demand_hits::total         27660834                       # number of demand (read+write) hits
system.cpu.icache.overall_hits::.cpu.inst     27660834                       # number of overall hits
system.cpu.icache.overall_hits::total        27660834                       # number of overall hits
system.cpu.icache.demand_misses::.cpu.inst       668906                       # number of demand (read+write) misses
system.cpu.icache.demand_misses::total         668906                       # number of demand (read+write) misses
system.cpu.icache.overall_misses::.cpu.inst       668906                       # number of overall misses
system.cpu.icache.overall_misses::total        668906                       # number of overall misses
system.cpu.icache.demand_miss_latency::.cpu.inst   8729621500                       # number of demand (read+write) miss cycles
system.cpu.icache.demand_miss_latency::total   8729621500                       # number of demand (read+write) miss cycles
system.cpu.icache.overall_miss_latency::.cpu.inst   8729621500                       # number of overall miss cycles
system.cpu.icache.overall_miss_latency::total   8729621500                       # number of overall miss cycles
system.cpu.icache.demand_accesses::.cpu.inst     28329740                       # number of demand (read+write) accesses
system.cpu.icache.demand_accesses::total     28329740                       # number of demand (read+write) accesses
system.cpu.icache.overall_accesses::.cpu.inst     28329740                       # number of overall (read+write) accesses
system.cpu.icache.overall_accesses::total     28329740                       # number of overall (read+write) accesses
system.cpu.icache.demand_miss_rate::.cpu.inst     0.023611                       # miss rate for demand accesses
system.cpu.icache.demand_miss_rate::total     0.023611                       # miss rate for demand accesses
system.cpu.icache.overall_miss_rate::.cpu.inst     0.023611                       # miss rate for overall accesses
system.cpu.icache.overall_miss_rate::total     0.023611                       # miss rate for overall accesses
system.cpu.icache.demand_avg_miss_latency::.cpu.inst 13050.595300                       # average overall miss latency
system.cpu.icache.demand_avg_miss_latency::total 13050.595300                       # average overall miss latency
system.cpu.icache.overall_avg_miss_latency::.cpu.inst 13050.595300                       # average overall miss latency
system.cpu.icache.overall_avg_miss_latency::total 13050.595300                       # average overall miss latency
system.cpu.icache.blocked_cycles::no_mshrs            0                       # number of cycles access was blocked
system.cpu.icache.blocked_cycles::no_targets            0                       # number of cycles access was blocked
system.cpu.icache.blocked::no_mshrs                 0                       # number of cycles access was blocked
system.cpu.icache.blocked::no_targets               0                       # number of cycles access was blocked
system.cpu.icache.avg_blocked_cycles::no_mshrs          nan                       # average number of cycles each access was blocked
system.cpu.icache.avg_blocked_cycles::no_targets          nan                       # average number of cycles each access was blocked
system.cpu.icache.writebacks::.writebacks       668508                       # number of writebacks
system.cpu.icache.writebacks::total            668508                       # number of writebacks
system.cpu.icache.demand_mshr_misses::.cpu.inst       668906                       # number of demand (read+write) MSHR misses
system.cpu.icache.demand_mshr_misses::total       668906                       # number of demand (read+write) MSHR misses
system.cpu.icache.overall_mshr_misses::.cpu.inst       668906                       # number of overall MSHR misses
system.cpu.icache.overall_mshr_misses::total       668906                       # number of overall MSHR misses
system.cpu.icache.demand_mshr_miss_latency::.cpu.inst   8060715500                       # number of demand (read+write) MSHR miss cycles
system.cpu.icache.demand_mshr_miss_latency::total   8060715500                       # number of demand (read+write) MSHR miss cycles
system.cpu.icache.overall_mshr_miss_latency::.cpu.inst   8060715500                       # number of overall MSHR miss cycles
system.cpu.icache.overall_mshr_miss_latency::total   8060715500                       # number of overall MSHR miss cycles
system.cpu.icache.demand_mshr_miss_rate::.cpu.inst     0.023611                       # mshr miss rate for demand accesses
system.cpu.icache.demand_mshr_miss_rate::total     0.023611                       # mshr miss rate for demand accesses
system.cpu.icache.overall_mshr_miss_rate::.cpu.inst     0.023611                       # mshr miss rate for overall accesses
system.cpu.icache.overall_mshr_miss_rate::total     0.023611                       # mshr miss rate for overall accesses
system.cpu.icache.demand_avg_mshr_miss_latency::.cpu.inst 12050.595300                       # average overall mshr miss latency
system.cpu.icache.demand_avg_mshr_miss_latency::total 12050.595300                       # average overall mshr miss latency
system.cpu.icache.overall_avg_mshr_miss_latency::.cpu.inst 12050.595300                       # average overall mshr miss latency
system.cpu.icache.overall_avg_mshr_miss_latency::total 12050.595300                       # average overall mshr miss latency
system.cpu.icache.replacements                 668508                       # number of replacements
system.cpu.icache.ReadReq_hits::.cpu.inst     27660834                       # number of ReadReq hits
system.cpu.icache.ReadReq_hits::total        27660834                       # number of ReadReq hits
system.cpu.icache.ReadReq_misses::.cpu.inst       668906                       # number of ReadReq misses
system.cpu.icache.ReadReq_misses::total        668906                       # number of ReadReq misses
system.cpu.icache.ReadReq_miss_latency::.cpu.inst   8729621500                       # number of ReadReq miss cycles
system.cpu.icache.ReadReq_miss_latency::total   8729621500                       # number of ReadReq miss cycles
system.cpu.icache.ReadReq_accesses::.cpu.inst     28329740                       # number of ReadReq accesses(hits+misses)
system.cpu.icache.ReadReq_accesses::total     28329740                       # number of ReadReq accesses(hits+misses)
system.cpu.icache.ReadReq_miss_rate::.cpu.inst     0.023611                       # miss rate for ReadReq accesses
system.cpu.icache.ReadReq_miss_rate::total     0.023611                       # miss rate for ReadReq accesses
system.cpu.icache.ReadReq_avg_miss_latency::.cpu.inst 13050.595300                       # average ReadReq miss latency
system.cpu.icache.ReadReq_avg_miss_latency::total 13050.595300                       # average ReadReq miss latency
system.cpu.icache.ReadReq_mshr_misses::.cpu.inst       668906                       # number of ReadReq MSHR misses
system.cpu.icache.ReadReq_mshr_misses::total       668906                       # number of ReadReq MSHR misses
system.cpu.icache.ReadReq_mshr_miss_latency::.cpu.inst   8060715500                       # number of ReadReq MSHR miss cycles
system.cpu.icache.ReadReq_mshr_miss_latency::total   8060715500                       # number of ReadReq MSHR miss cycles
system.cpu.icache.ReadReq_mshr_miss_rate::.cpu.inst     0.023611                       # mshr miss rate for ReadReq accesses
system.cpu.icache.ReadReq_mshr_miss_rate::total     0.023611                       # mshr miss rate for ReadReq accesses
system.cpu.icache.ReadReq_avg_mshr_miss_latency::.cpu.inst 12050.595300                       # average ReadReq mshr miss latency
system.cpu.icache.ReadReq_avg_mshr_miss_latency::total 12050.595300                       # average ReadReq mshr miss latency
system.cpu.icache.power_state.pwrStateResidencyTicks::UNDEFINED  65442355500                       # Cumulative time (in ticks) in various power states
system.cpu.icache.tags.tagsinuse           397.679674                       # Cycle average of tags in use
system.cpu.icache.tags.total_refs            28329740                       # Total number of references to valid blocks.
system.cpu.icache.tags.sampled_refs            668906                       # Sample count of references to valid blocks.
system.cpu.icache.tags.avg_refs             42.352348                       # Average number of references to valid blocks.
system.cpu.icache.tags.warmup_cycle             87500                       # Cycle when the warmup percentage was hit.
system.cpu.icache.tags.occ_blocks::.cpu.inst   397.679674                       # Average occupied blocks per requestor
system.cpu.icache.tags.occ_percent::.cpu.inst     0.776718                       # Average percentage of cache occupancy
system.cpu.icache.tags.occ_percent::total     0.776718                       # Average percentage of cache occupancy
system.cpu.icache.tags.occ_task_id_blocks::1024          398                       # Occupied blocks per task id
system.cpu.icache.tags.age_task_id_blocks_1024::0           10                       # Occupied blocks per task id
system.cpu.icache.tags.age_task_id_blocks_1024::2            4                       # Occupied blocks per task id
system.cpu.icache.tags.age_task_id_blocks_1024::4          384                       # Occupied blocks per task id
system.cpu.icache.tags.occ_task_id_percent::1024     0.777344                       # Percentage of cache occupancy per task id
system.cpu.icache.tags.tag_accesses          57328386                       # Number of tag accesses
system.cpu.icache.tags.data_accesses         57328386                       # Number of data accesses
system.cpu.icache.tags.power_state.pwrStateResidencyTicks::UNDEFINED  65442355500                       # Cumulative time (in ticks) in various power states
system.cpu.itb.instHits                             0                       # ITB inst hits
system.cpu.itb.instMisses                           0                       # ITB inst misses
system.cpu.itb.readHits                             0                       # DTB read hits
system.cpu.itb.readMisses                           0                       # DTB read misses
system.cpu.itb.writeHits                            0                       # DTB write hits
system.cpu.itb.writeMisses                          0                       # DTB write misses
system.cpu.itb.inserts                              0                       # Number of times an entry is inserted into the TLB
system.cpu.itb.flushTlb                             0                       # Number of times complete TLB was flushed
system.cpu.itb.flushTlbMva                          0                       # Number of times TLB was flushed by MVA
system.cpu.itb.flushTlbMvaAsid                      0                       # Number of times TLB was flushed by MVA & ASID
system.cpu.itb.flushTlbAsid                         0                       # Number of times TLB was flushed by ASID
system.cpu.itb.flushedEntries                       0                       # Number of entries that have been flushed from TLB
system.cpu.itb.alignFaults                          0                       # Number of TLB faults due to alignment restrictions
system.cpu.itb.prefetchFaults                       0                       # Number of TLB faults due to prefetch
system.cpu.itb.domainFaults                         0                       # Number of TLB faults due to domain restrictions
system.cpu.itb.permsFaults                          0                       # Number of TLB faults due to permissions restrictions
system.cpu.itb.readAccesses                         0                       # DTB read accesses
system.cpu.itb.writeAccesses                        0                       # DTB write accesses
system.cpu.itb.instAccesses                         0                       # ITB inst accesses
system.cpu.itb.hits                                 0                       # Total TLB (inst and data) hits
system.cpu.itb.misses                               0                       # Total TLB (inst and data) misses
system.cpu.itb.accesses                             0                       # Total TLB (inst and data) accesses
system.cpu.itb.stage2_mmu.stage2_tlb.instHits            0                       # ITB inst hits
system.cpu.itb.stage2_mmu.stage2_tlb.instMisses            0                       # ITB inst misses
system.cpu.itb.stage2_mmu.stage2_tlb.readHits            0                       # DTB read hits
system.cpu.itb.stage2_mmu.stage2_tlb.readMisses            0                       # DTB read misses
system.cpu.itb.stage2_mmu.stage2_tlb.writeHits            0                       # DTB write hits
system.cpu.itb.stage2_mmu.stage2_tlb.writeMisses            0                       # DTB write misses
system.cpu.itb.stage2_mmu.stage2_tlb.inserts            0                       # Number of times an entry is inserted into the TLB
system.cpu.itb.stage2_mmu.stage2_tlb.flushTlb            0                       # Number of times complete TLB was flushed
system.cpu.itb.stage2_mmu.stage2_tlb.flushTlbMva            0                       # Number of times TLB was flushed by MVA
system.cpu.itb.stage2_mmu.stage2_tlb.flushTlbMvaAsid            0                       # Number of times TLB was flushed by MVA & ASID
system.cpu.itb.stage2_mmu.stage2_tlb.flushTlbAsid            0                       # Number of times TLB was flushed by ASID
system.cpu.itb.stage2_mmu.stage2_tlb.flushedEntries            0                       # Number of entries that have been flushed from TLB
system.cpu.itb.stage2_mmu.stage2_tlb.alignFaults            0                       # Number of TLB faults due to alignment restrictions
system.cpu.itb.stage2_mmu.stage2_tlb.prefetchFaults            0                       # Number of TLB faults due to prefetch
system.cpu.itb.stage2_mmu.stage2_tlb.domainFaults            0                       # Number of TLB faults due to domain restrictions
system.cpu.itb.stage2_mmu.stage2_tlb.permsFaults            0                       # Number of TLB faults due to permissions restrictions
system.cpu.itb.stage2_mmu.stage2_tlb.readAccesses            0                       # DTB read accesses
system.cpu.itb.stage2_mmu.stage2_tlb.writeAccesses            0                       # DTB write accesses
system.cpu.itb.stage2_mmu.stage2_tlb.instAccesses            0                       # ITB inst accesses
system.cpu.itb.stage2_mmu.stage2_tlb.hits            0                       # Total TLB (inst and data) hits
system.cpu.itb.stage2_mmu.stage2_tlb.misses            0                       # Total TLB (inst and data) misses
system.cpu.itb.stage2_mmu.stage2_tlb.accesses            0                       # Total TLB (inst and data) accesses
system.cpu.itb.stage2_mmu.stage2_tlb.walker.walks            0                       # Table walker walks requested
system.cpu.itb.stage2_mmu.stage2_tlb.walker.requestOrigin_Requested::Data            0                       # Table walker requests started/completed, data/inst
system.cpu.itb.stage2_mmu.stage2_tlb.walker.requestOrigin_Requested::Inst            0                       # Table walker requests started/completed, data/inst
system.cpu.itb.stage2_mmu.stage2_tlb.walker.requestOrigin_Requested::total            0                       # Table walker requests started/completed, data/inst
system.cpu.itb.stage2_mmu.stage2_tlb.walker.requestOrigin_Completed::Data            0                       # Table walker requests started/completed, data/inst
system.cpu.itb.stage2_mmu.stage2_tlb.walker.requestOrigin_Completed::Inst            0                       # Table walker requests started/completed, data/inst
system.cpu.itb.stage2_mmu.stage2_tlb.walker.requestOrigin_Completed::total            0                       # Table walker requests started/completed, data/inst
system.cpu.itb.stage2_mmu.stage2_tlb.walker.requestOrigin::total            0                       # Table walker requests started/completed, data/inst
system.cpu.itb.stage2_mmu.stage2_tlb.walker.power_state.pwrStateResidencyTicks::UNDEFINED  65442355500                       # Cumulative time (in ticks) in various power states
system.cpu.itb.walker.walks                         0                       # Table walker walks requested
system.cpu.itb.walker.requestOrigin_Requested::Data            0                       # Table walker requests started/completed, data/inst
system.cpu.itb.walker.requestOrigin_Requested::Inst            0                       # Table walker requests started/completed, data/inst
system.cpu.itb.walker.requestOrigin_Requested::total            0                       # Table walker requests started/completed, data/inst
system.cpu.itb.walker.requestOrigin_Completed::Data            0                       # Table walker requests started/completed, data/inst
system.cpu.itb.walker.requestOrigin_Completed::Inst            0                       # Table walker requests started/completed, data/inst
system.cpu.itb.walker.requestOrigin_Completed::total            0                       # Table walker requests started/completed, data/inst
system.cpu.itb.walker.requestOrigin::total            0                       # Table walker requests started/completed, data/inst
system.cpu.itb.walker.power_state.pwrStateResidencyTicks::UNDEFINED  65442355500                       # Cumulative time (in ticks) in various power states
system.cpu.power_state.pwrStateResidencyTicks::ON  65442355500                       # Cumulative time (in ticks) in various power states
system.cpu.thread_0.numInsts                100000000                       # Number of Instructions committed
system.cpu.thread_0.numOps                  109431867                       # Number of Ops committed
system.cpu.thread_0.numMemRefs                      0                       # Number of Memory References
system.cpu_clk_domain.clock                       500                       # Clock period in ticks
system.cpu_voltage_domain.voltage                   1                       # Voltage in Volts
system.l2.demand_hits::.cpu.inst               668393                       # number of demand (read+write) hits
system.l2.demand_hits::.cpu.data                18699                       # number of demand (read+write) hits
system.l2.demand_hits::total                   687092                       # number of demand (read+write) hits
system.l2.overall_hits::.cpu.inst              668393                       # number of overall hits
system.l2.overall_hits::.cpu.data               18699                       # number of overall hits
system.l2.overall_hits::total                  687092                       # number of overall hits
system.l2.demand_misses::.cpu.inst                513                       # number of demand (read+write) misses
system.l2.demand_misses::.cpu.data              45839                       # number of demand (read+write) misses
system.l2.demand_misses::total                  46352                       # number of demand (read+write) misses
system.l2.overall_misses::.cpu.inst               513                       # number of overall misses
system.l2.overall_misses::.cpu.data             45839                       # number of overall misses
system.l2.overall_misses::total                 46352                       # number of overall misses
system.l2.demand_miss_latency::.cpu.inst     39128000                       # number of demand (read+write) miss cycles
system.l2.demand_miss_latency::.cpu.data   3722258000                       # number of demand (read+write) miss cycles
system.l2.demand_miss_latency::total       3761386000                       # number of demand (read+write) miss cycles
system.l2.overall_miss_latency::.cpu.inst     39128000                       # number of overall miss cycles
system.l2.overall_miss_latency::.cpu.data   3722258000                       # number of overall miss cycles
system.l2.overall_miss_latency::total      3761386000                       # number of overall miss cycles
system.l2.demand_accesses::.cpu.inst           668906                       # number of demand (read+write) accesses
system.l2.demand_accesses::.cpu.data            64538                       # number of demand (read+write) accesses
system.l2.demand_accesses::total               733444                       # number of demand (read+write) accesses
system.l2.overall_accesses::.cpu.inst          668906                       # number of overall (read+write) accesses
system.l2.overall_accesses::.cpu.data           64538                       # number of overall (read+write) accesses
system.l2.overall_accesses::total              733444                       # number of overall (read+write) accesses
system.l2.demand_miss_rate::.cpu.inst        0.000767                       # miss rate for demand accesses
system.l2.demand_miss_rate::.cpu.data        0.710264                       # miss rate for demand accesses
system.l2.demand_miss_rate::total            0.063198                       # miss rate for demand accesses
system.l2.overall_miss_rate::.cpu.inst       0.000767                       # miss rate for overall accesses
system.l2.overall_miss_rate::.cpu.data       0.710264                       # miss rate for overall accesses
system.l2.overall_miss_rate::total           0.063198                       # miss rate for overall accesses
system.l2.demand_avg_miss_latency::.cpu.inst 76272.904483                       # average overall miss latency
system.l2.demand_avg_miss_latency::.cpu.data 81202.862192                       # average overall miss latency
system.l2.demand_avg_miss_latency::total 81148.299965                       # average overall miss latency
system.l2.overall_avg_miss_latency::.cpu.inst 76272.904483                       # average overall miss latency
system.l2.overall_avg_miss_latency::.cpu.data 81202.862192                       # average overall miss latency
system.l2.overall_avg_miss_latency::total 81148.299965                       # average overall miss latency
system.l2.blocked_cycles::no_mshrs                  0                       # number of cycles access was blocked
system.l2.blocked_cycles::no_targets                0                       # number of cycles access was blocked
system.l2.blocked::no_mshrs                         0                       # number of cycles access was blocked
system.l2.blocked::no_targets                       0                       # number of cycles access was blocked
system.l2.avg_blocked_cycles::no_mshrs            nan                       # average number of cycles each access was blocked
system.l2.avg_blocked_cycles::no_targets          nan                       # average number of cycles each access was blocked
system.l2.writebacks::.writebacks               37549                       # number of writebacks
system.l2.writebacks::total                     37549                       # number of writebacks
system.l2.demand_mshr_hits::.cpu.inst               1                       # number of demand (read+write) MSHR hits
system.l2.demand_mshr_hits::.cpu.data               5                       # number of demand (read+write) MSHR hits
system.l2.demand_mshr_hits::total                   6                       # number of demand (read+write) MSHR hits
system.l2.overall_mshr_hits::.cpu.inst              1                       # number of overall MSHR hits
system.l2.overall_mshr_hits::.cpu.data              5                       # number of overall MSHR hits
system.l2.overall_mshr_hits::total                  6                       # number of overall MSHR hits
system.l2.demand_mshr_misses::.cpu.inst           512                       # number of demand (read+write) MSHR misses
system.l2.demand_mshr_misses::.cpu.data         45834                       # number of demand (read+write) MSHR misses
system.l2.demand_mshr_misses::total             46346                       # number of demand (read+write) MSHR misses
system.l2.overall_mshr_misses::.cpu.inst          512                       # number of overall MSHR misses
system.l2.overall_mshr_misses::.cpu.data        45834                       # number of overall MSHR misses
system.l2.overall_mshr_misses::total            46346                       # number of overall MSHR misses
system.l2.demand_mshr_miss_latency::.cpu.inst     33943500                       # number of demand (read+write) MSHR miss cycles
system.l2.demand_mshr_miss_latency::.cpu.data   3263577000                       # number of demand (read+write) MSHR miss cycles
system.l2.demand_mshr_miss_latency::total   3297520500                       # number of demand (read+write) MSHR miss cycles
system.l2.overall_mshr_miss_latency::.cpu.inst     33943500                       # number of overall MSHR miss cycles
system.l2.overall_mshr_miss_latency::.cpu.data   3263577000                       # number of overall MSHR miss cycles
system.l2.overall_mshr_miss_latency::total   3297520500                       # number of overall MSHR miss cycles
system.l2.demand_mshr_miss_rate::.cpu.inst     0.000765                       # mshr miss rate for demand accesses
system.l2.demand_mshr_miss_rate::.cpu.data     0.710186                       # mshr miss rate for demand accesses
system.l2.demand_mshr_miss_rate::total       0.063190                       # mshr miss rate for demand accesses
system.l2.overall_mshr_miss_rate::.cpu.inst     0.000765                       # mshr miss rate for overall accesses
system.l2.overall_mshr_miss_rate::.cpu.data     0.710186                       # mshr miss rate for overall accesses
system.l2.overall_mshr_miss_rate::total      0.063190                       # mshr miss rate for overall accesses
system.l2.demand_avg_mshr_miss_latency::.cpu.inst 66295.898438                       # average overall mshr miss latency
system.l2.demand_avg_mshr_miss_latency::.cpu.data 71204.280665                       # average overall mshr miss latency
system.l2.demand_avg_mshr_miss_latency::total 71150.056100                       # average overall mshr miss latency
system.l2.overall_avg_mshr_miss_latency::.cpu.inst 66295.898438                       # average overall mshr miss latency
system.l2.overall_avg_mshr_miss_latency::.cpu.data 71204.280665                       # average overall mshr miss latency
system.l2.overall_avg_mshr_miss_latency::total 71150.056100                       # average overall mshr miss latency
system.l2.replacements                          38185                       # number of replacements
system.l2.WritebackDirty_hits::.writebacks        56438                       # number of WritebackDirty hits
system.l2.WritebackDirty_hits::total            56438                       # number of WritebackDirty hits
system.l2.WritebackDirty_accesses::.writebacks        56438                       # number of WritebackDirty accesses(hits+misses)
system.l2.WritebackDirty_accesses::total        56438                       # number of WritebackDirty accesses(hits+misses)
system.l2.WritebackClean_hits::.writebacks       668423                       # number of WritebackClean hits
system.l2.WritebackClean_hits::total           668423                       # number of WritebackClean hits
system.l2.WritebackClean_accesses::.writebacks       668423                       # number of WritebackClean accesses(hits+misses)
system.l2.WritebackClean_accesses::total       668423                       # number of WritebackClean accesses(hits+misses)
system.l2.CleanEvict_mshr_misses::.writebacks           16                       # number of CleanEvict MSHR misses
system.l2.CleanEvict_mshr_misses::total            16                       # number of CleanEvict MSHR misses
system.l2.CleanEvict_mshr_miss_rate::.writebacks          inf                       # mshr miss rate for CleanEvict accesses
system.l2.CleanEvict_mshr_miss_rate::total          inf                       # mshr miss rate for CleanEvict accesses
system.l2.ReadExReq_hits::.cpu.data              1995                       # number of ReadExReq hits
system.l2.ReadExReq_hits::total                  1995                       # number of ReadExReq hits
system.l2.ReadExReq_misses::.cpu.data           38812                       # number of ReadExReq misses
system.l2.ReadExReq_misses::total               38812                       # number of ReadExReq misses
system.l2.ReadExReq_miss_latency::.cpu.data   3086274000                       # number of ReadExReq miss cycles
system.l2.ReadExReq_miss_latency::total    3086274000                       # number of ReadExReq miss cycles
system.l2.ReadExReq_accesses::.cpu.data         40807                       # number of ReadExReq accesses(hits+misses)
system.l2.ReadExReq_accesses::total             40807                       # number of ReadExReq accesses(hits+misses)
system.l2.ReadExReq_miss_rate::.cpu.data     0.951111                       # miss rate for ReadExReq accesses
system.l2.ReadExReq_miss_rate::total         0.951111                       # miss rate for ReadExReq accesses
system.l2.ReadExReq_avg_miss_latency::.cpu.data 79518.550964                       # average ReadExReq miss latency
system.l2.ReadExReq_avg_miss_latency::total 79518.550964                       # average ReadExReq miss latency
system.l2.ReadExReq_mshr_misses::.cpu.data        38812                       # number of ReadExReq MSHR misses
system.l2.ReadExReq_mshr_misses::total          38812                       # number of ReadExReq MSHR misses
system.l2.ReadExReq_mshr_miss_latency::.cpu.data   2698154000                       # number of ReadExReq MSHR miss cycles
system.l2.ReadExReq_mshr_miss_latency::total   2698154000                       # number of ReadExReq MSHR miss cycles
system.l2.ReadExReq_mshr_miss_rate::.cpu.data     0.951111                       # mshr miss rate for ReadExReq accesses
system.l2.ReadExReq_mshr_miss_rate::total     0.951111                       # mshr miss rate for ReadExReq accesses
system.l2.ReadExReq_avg_mshr_miss_latency::.cpu.data 69518.550964                       # average ReadExReq mshr miss latency
system.l2.ReadExReq_avg_mshr_miss_latency::total 69518.550964                       # average ReadExReq mshr miss latency
system.l2.ReadCleanReq_hits::.cpu.inst         668393                       # number of ReadCleanReq hits
system.l2.ReadCleanReq_hits::total             668393                       # number of ReadCleanReq hits
system.l2.ReadCleanReq_misses::.cpu.inst          513                       # number of ReadCleanReq misses
system.l2.ReadCleanReq_misses::total              513                       # number of ReadCleanReq misses
system.l2.ReadCleanReq_miss_latency::.cpu.inst     39128000                       # number of ReadCleanReq miss cycles
system.l2.ReadCleanReq_miss_latency::total     39128000                       # number of ReadCleanReq miss cycles
system.l2.ReadCleanReq_accesses::.cpu.inst       668906                       # number of ReadCleanReq accesses(hits+misses)
system.l2.ReadCleanReq_accesses::total         668906                       # number of ReadCleanReq accesses(hits+misses)
system.l2.ReadCleanReq_miss_rate::.cpu.inst     0.000767                       # miss rate for ReadCleanReq accesses
system.l2.ReadCleanReq_miss_rate::total      0.000767                       # miss rate for ReadCleanReq accesses
system.l2.ReadCleanReq_avg_miss_latency::.cpu.inst 76272.904483                       # average ReadCleanReq miss latency
system.l2.ReadCleanReq_avg_miss_latency::total 76272.904483                       # average ReadCleanReq miss latency
system.l2.ReadCleanReq_mshr_hits::.cpu.inst            1                       # number of ReadCleanReq MSHR hits
system.l2.ReadCleanReq_mshr_hits::total             1                       # number of ReadCleanReq MSHR hits
system.l2.ReadCleanReq_mshr_misses::.cpu.inst          512                       # number of ReadCleanReq MSHR misses
system.l2.ReadCleanReq_mshr_misses::total          512                       # number of ReadCleanReq MSHR misses
system.l2.ReadCleanReq_mshr_miss_latency::.cpu.inst     33943500                       # number of ReadCleanReq MSHR miss cycles
system.l2.ReadCleanReq_mshr_miss_latency::total     33943500                       # number of ReadCleanReq MSHR miss cycles
system.l2.ReadCleanReq_mshr_miss_rate::.cpu.inst     0.000765                       # mshr miss rate for ReadCleanReq accesses
system.l2.ReadCleanReq_mshr_miss_rate::total     0.000765                       # mshr miss rate for ReadCleanReq accesses
system.l2.ReadCleanReq_avg_mshr_miss_latency::.cpu.inst 66295.898438                       # average ReadCleanReq mshr miss latency
system.l2.ReadCleanReq_avg_mshr_miss_latency::total 66295.898438                       # average ReadCleanReq mshr miss latency
system.l2.ReadSharedReq_hits::.cpu.data         16704                       # number of ReadSharedReq hits
system.l2.ReadSharedReq_hits::total             16704                       # number of ReadSharedReq hits
system.l2.ReadSharedReq_misses::.cpu.data         7027                       # number of ReadSharedReq misses
system.l2.ReadSharedReq_misses::total            7027                       # number of ReadSharedReq misses
system.l2.ReadSharedReq_miss_latency::.cpu.data    635984000                       # number of ReadSharedReq miss cycles
system.l2.ReadSharedReq_miss_latency::total    635984000                       # number of ReadSharedReq miss cycles
system.l2.ReadSharedReq_accesses::.cpu.data        23731                       # number of ReadSharedReq accesses(hits+misses)
system.l2.ReadSharedReq_accesses::total         23731                       # number of ReadSharedReq accesses(hits+misses)
system.l2.ReadSharedReq_miss_rate::.cpu.data     0.296111                       # miss rate for ReadSharedReq accesses
system.l2.ReadSharedReq_miss_rate::total     0.296111                       # miss rate for ReadSharedReq accesses
system.l2.ReadSharedReq_avg_miss_latency::.cpu.data 90505.763484                       # average ReadSharedReq miss latency
system.l2.ReadSharedReq_avg_miss_latency::total 90505.763484                       # average ReadSharedReq miss latency
system.l2.ReadSharedReq_mshr_hits::.cpu.data            5                       # number of ReadSharedReq MSHR hits
system.l2.ReadSharedReq_mshr_hits::total            5                       # number of ReadSharedReq MSHR hits
system.l2.ReadSharedReq_mshr_misses::.cpu.data         7022                       # number of ReadSharedReq MSHR misses
system.l2.ReadSharedReq_mshr_misses::total         7022                       # number of ReadSharedReq MSHR misses
system.l2.ReadSharedReq_mshr_miss_latency::.cpu.data    565423000                       # number of ReadSharedReq MSHR miss cycles
system.l2.ReadSharedReq_mshr_miss_latency::total    565423000                       # number of ReadSharedReq MSHR miss cycles
system.l2.ReadSharedReq_mshr_miss_rate::.cpu.data     0.295900                       # mshr miss rate for ReadSharedReq accesses
system.l2.ReadSharedReq_mshr_miss_rate::total     0.295900                       # mshr miss rate for ReadSharedReq accesses
system.l2.ReadSharedReq_avg_mshr_miss_latency::.cpu.data 80521.646255                       # average ReadSharedReq mshr miss latency
system.l2.ReadSharedReq_avg_mshr_miss_latency::total 80521.646255                       # average ReadSharedReq mshr miss latency
system.l2.power_state.pwrStateResidencyTicks::UNDEFINED  65442355500                       # Cumulative time (in ticks) in various power states
system.l2.tags.tagsinuse                  7998.645550                       # Cycle average of tags in use
system.l2.tags.total_refs                     1465829                       # Total number of references to valid blocks.
system.l2.tags.sampled_refs                     46377                       # Sample count of references to valid blocks.
system.l2.tags.avg_refs                     31.606809                       # Average number of references to valid blocks.
system.l2.tags.warmup_cycle                     77000                       # Cycle when the warmup percentage was hit.
system.l2.tags.occ_blocks::.writebacks       6.493910                       # Average occupied blocks per requestor
system.l2.tags.occ_blocks::.cpu.inst        44.993926                       # Average occupied blocks per requestor
system.l2.tags.occ_blocks::.cpu.data      7947.157714                       # Average occupied blocks per requestor
system.l2.tags.occ_percent::.writebacks      0.000793                       # Average percentage of cache occupancy
system.l2.tags.occ_percent::.cpu.inst        0.005492                       # Average percentage of cache occupancy
system.l2.tags.occ_percent::.cpu.data        0.970112                       # Average percentage of cache occupancy
system.l2.tags.occ_percent::total            0.976397                       # Average percentage of cache occupancy
system.l2.tags.occ_task_id_blocks::1024          8192                       # Occupied blocks per task id
system.l2.tags.age_task_id_blocks_1024::0            4                       # Occupied blocks per task id
system.l2.tags.age_task_id_blocks_1024::1           30                       # Occupied blocks per task id
system.l2.tags.age_task_id_blocks_1024::2          460                       # Occupied blocks per task id
system.l2.tags.age_task_id_blocks_1024::3         4174                       # Occupied blocks per task id
system.l2.tags.age_task_id_blocks_1024::4         3524                       # Occupied blocks per task id
system.l2.tags.occ_task_id_percent::1024            1                       # Percentage of cache occupancy per task id
system.l2.tags.tag_accesses                   5909781                       # Number of tag accesses
system.l2.tags.data_accesses                  5909781                       # Number of data accesses
system.l2.tags.power_state.pwrStateResidencyTicks::UNDEFINED  65442355500                       # Cumulative time (in ticks) in various power states
system.mem_ctrls.avgPriority_.writebacks::samples     37549.00                       # Average QoS priority value for accepted requests
system.mem_ctrls.avgPriority_.cpu.inst::samples       512.00                       # Average QoS priority value for accepted requests
system.mem_ctrls.avgPriority_.cpu.data::samples     45819.00                       # Average QoS priority value for accepted requests
system.mem_ctrls.priorityMinLatency      0.000000018750                       # per QoS priority minimum request to response latency (s)
system.mem_ctrls.priorityMaxLatency      0.001319184500                       # per QoS priority maximum request to response latency (s)
system.mem_ctrls.numReadWriteTurnArounds         2106                       # Number of turnarounds from READ to WRITE
system.mem_ctrls.numWriteReadTurnArounds         2106                       # Number of turnarounds from WRITE to READ
system.mem_ctrls.numStayReadState              146351                       # Number of times bus staying in READ state
system.mem_ctrls.numStayWriteState              35487                       # Number of times bus staying in WRITE state
system.mem_ctrls.readReqs                       46346                       # Number of read requests accepted
system.mem_ctrls.writeReqs                      37549                       # Number of write requests accepted
system.mem_ctrls.readBursts                     46346                       # Number of controller read bursts, including those serviced by the write queue
system.mem_ctrls.writeBursts                    37549                       # Number of controller write bursts, including those merged in the write queue
system.mem_ctrls.servicedByWrQ                     15                       # Number of controller read bursts serviced by the write queue
system.mem_ctrls.mergedWrBursts                     0                       # Number of controller write bursts merged with an existing one
system.mem_ctrls.neitherReadNorWriteReqs            0                       # Number of requests that are neither read nor write
system.mem_ctrls.avgRdQLen                       1.08                       # Average read queue length when enqueuing
system.mem_ctrls.avgWrQLen                      23.51                       # Average write queue length when enqueuing
system.mem_ctrls.numRdRetry                         0                       # Number of times read queue was full causing retry
system.mem_ctrls.numWrRetry                         0                       # Number of times write queue was full causing retry
system.mem_ctrls.readPktSize::0                     0                       # Read request sizes (log2)
system.mem_ctrls.readPktSize::1                     0                       # Read request sizes (log2)
system.mem_ctrls.readPktSize::2                     0                       # Read request sizes (log2)
system.mem_ctrls.readPktSize::3                     0                       # Read request sizes (log2)
system.mem_ctrls.readPktSize::4                     0                       # Read request sizes (log2)
system.mem_ctrls.readPktSize::5                     0                       # Read request sizes (log2)
system.mem_ctrls.readPktSize::6                 46346                       # Read request sizes (log2)
system.mem_ctrls.writePktSize::0                    0                       # Write request sizes (log2)
system.mem_ctrls.writePktSize::1                    0                       # Write request sizes (log2)
system.mem_ctrls.writePktSize::2                    0                       # Write request sizes (log2)
system.mem_ctrls.writePktSize::3                    0                       # Write request sizes (log2)
system.mem_ctrls.writePktSize::4                    0                       # Write request sizes (log2)
system.mem_ctrls.writePktSize::5                    0                       # Write request sizes (log2)
system.mem_ctrls.writePktSize::6                37549                       # Write request sizes (log2)
system.mem_ctrls.rdQLenPdf::0                   43885                       # What read queue length does an incoming req see
system.mem_ctrls.rdQLenPdf::1                    2439                       # What read queue length does an incoming req see
[...]
system.mem_ctrls.dram.bw_write::.writebacks     36721417                       # Write bandwidth from this memory (bytes/s)
system.mem_ctrls.dram.bw_write::total        36721417                       # Write bandwidth from this memory (bytes/s)
system.mem_ctrls.dram.bw_total::.writebacks     36721417                       # Total bandwidth to/from this memory (bytes/s)
system.mem_ctrls.dram.bw_total::.cpu.inst       500715                       # Total bandwidth to/from this memory (bytes/s)
system.mem_ctrls.dram.bw_total::.cpu.data     44823814                       # Total bandwidth to/from this memory (bytes/s)
system.mem_ctrls.dram.bw_total::total        82045947                       # Total bandwidth to/from this memory (bytes/s)
system.mem_ctrls.dram.readBursts                46331                       # Number of DRAM read bursts
system.mem_ctrls.dram.writeBursts               37532                       # Number of DRAM write bursts
system.mem_ctrls.dram.perBankRdBursts::0         2843                       # Per bank write bursts
system.mem_ctrls.dram.perBankRdBursts::1         2868                       # Per bank write bursts
system.mem_ctrls.dram.perBankRdBursts::2         2835                       # Per bank write bursts
system.mem_ctrls.dram.perBankRdBursts::3         2946                       # Per bank write bursts
system.mem_ctrls.dram.perBankRdBursts::4         2921                       # Per bank write bursts
system.mem_ctrls.dram.perBankRdBursts::5         2792                       # Per bank write bursts
system.mem_ctrls.dram.perBankRdBursts::6         2884                       # Per bank write bursts
system.mem_ctrls.dram.perBankRdBursts::7         2986                       # Per bank write bursts
system.mem_ctrls.dram.perBankRdBursts::8         2845                       # Per bank write bursts
system.mem_ctrls.dram.perBankRdBursts::9         2925                       # Per bank write bursts
system.mem_ctrls.dram.perBankRdBursts::10         2944                       # Per bank write bursts
system.mem_ctrls.dram.perBankRdBursts::11         2865                       # Per bank write bursts
system.mem_ctrls.dram.perBankRdBursts::12         2964                       # Per bank write bursts
system.mem_ctrls.dram.perBankRdBursts::13         2839                       # Per bank write bursts
system.mem_ctrls.dram.perBankRdBursts::14         2972                       # Per bank write bursts
system.mem_ctrls.dram.perBankRdBursts::15         2902                       # Per bank write bursts
system.mem_ctrls.dram.perBankWrBursts::0         2280                       # Per bank write bursts
system.mem_ctrls.dram.perBankWrBursts::1         2326                       # Per bank write bursts
system.mem_ctrls.dram.perBankWrBursts::2         2308                       # Per bank write bursts
system.mem_ctrls.dram.perBankWrBursts::3         2329                       # Per bank write bursts
system.mem_ctrls.dram.perBankWrBursts::4         2383                       # Per bank write bursts
system.mem_ctrls.dram.perBankWrBursts::5         2277                       # Per bank write bursts
system.mem_ctrls.dram.perBankWrBursts::6         2373                       # Per bank write bursts
system.mem_ctrls.dram.perBankWrBursts::7         2451                       # Per bank write bursts
system.mem_ctrls.dram.perBankWrBursts::8         2310                       # Per bank write bursts
system.mem_ctrls.dram.perBankWrBursts::9         2362                       # Per bank write bursts
system.mem_ctrls.dram.perBankWrBursts::10         2398                       # Per bank write bursts
system.mem_ctrls.dram.perBankWrBursts::11         2291                       # Per bank write bursts
system.mem_ctrls.dram.perBankWrBursts::12         2395                       # Per bank write bursts
system.mem_ctrls.dram.perBankWrBursts::13         2309                       # Per bank write bursts
system.mem_ctrls.dram.perBankWrBursts::14         2382                       # Per bank write bursts
system.mem_ctrls.dram.perBankWrBursts::15         2358                       # Per bank write bursts
system.mem_ctrls.dram.totQLat               524502000                       # Total ticks spent queuing
system.mem_ctrls.dram.totBusLat             231655000                       # Total ticks spent in databus transfers
system.mem_ctrls.dram.totMemAccLat         1393208250                       # Total ticks spent from burst creation until serviced by the DRAM
system.mem_ctrls.dram.avgQLat                11320.76                       # Average queueing delay per DRAM burst
system.mem_ctrls.dram.avgBusLat               5000.00                       # Average bus latency per DRAM burst
system.mem_ctrls.dram.avgMemAccLat           30070.76                       # Average memory access latency per DRAM burst
system.mem_ctrls.dram.readRowHits               27634                       # Number of row buffer hits during reads
system.mem_ctrls.dram.writeRowHits              26248                       # Number of row buffer hits during writes
system.mem_ctrls.dram.readRowHitRate            59.64                       # Row buffer hit rate for reads
system.mem_ctrls.dram.writeRowHitRate           69.93                       # Row buffer hit rate for writes
system.mem_ctrls.dram.bytesPerActivate::samples        29980                       # Bytes accessed per row activation
system.mem_ctrls.dram.bytesPerActivate::mean   179.022815                       # Bytes accessed per row activation
system.mem_ctrls.dram.bytesPerActivate::gmean   123.056621                       # Bytes accessed per row activation
system.mem_ctrls.dram.bytesPerActivate::stdev   200.988356                       # Bytes accessed per row activation
system.mem_ctrls.dram.bytesPerActivate::0-127        14626     48.79%     48.79% # Bytes accessed per row activation
system.mem_ctrls.dram.bytesPerActivate::128-255        10091     33.66%     82.44% # Bytes accessed per row activation
system.mem_ctrls.dram.bytesPerActivate::256-383         1667      5.56%     88.01% # Bytes accessed per row activation
system.mem_ctrls.dram.bytesPerActivate::384-511          956      3.19%     91.19% # Bytes accessed per row activation
system.mem_ctrls.dram.bytesPerActivate::512-639          875      2.92%     94.11% # Bytes accessed per row activation
system.mem_ctrls.dram.bytesPerActivate::640-767          568      1.89%     96.01% # Bytes accessed per row activation
system.mem_ctrls.dram.bytesPerActivate::768-895          381      1.27%     97.28% # Bytes accessed per row activation
system.mem_ctrls.dram.bytesPerActivate::896-1023          324      1.08%     98.36% # Bytes accessed per row activation
system.mem_ctrls.dram.bytesPerActivate::1024-1151          492      1.64%    100.00% # Bytes accessed per row activation
system.mem_ctrls.dram.bytesPerActivate::total        29980                       # Bytes accessed per row activation
system.mem_ctrls.dram.bytesRead               2965184                       # Total number of bytes read from DRAM
system.mem_ctrls.dram.bytesWritten            2402048                       # Total number of bytes written to DRAM
system.mem_ctrls.dram.avgRdBW               45.309861                       # Average DRAM read bandwidth in MiBytes/s
system.mem_ctrls.dram.avgWrBW               36.704791                       # Average DRAM write bandwidth in MiBytes/s
system.mem_ctrls.dram.peakBW                 12800.00                       # Theoretical peak bandwidth in MiByte/s
system.mem_ctrls.dram.busUtil                    0.64                       # Data bus utilization in percentage
system.mem_ctrls.dram.busUtilRead                0.35                       # Data bus utilization in percentage for reads
system.mem_ctrls.dram.busUtilWrite               0.29                       # Data bus utilization in percentage for writes
system.mem_ctrls.dram.pageHitRate               64.25                       # Row buffer hit rate, read and write combined
system.mem_ctrls.dram.power_state.pwrStateResidencyTicks::UNDEFINED  65442355500                       # Cumulative time (in ticks) in various power states
system.mem_ctrls.dram.rank0.actEnergy       107771160                       # Energy for activate commands per rank (pJ)
system.mem_ctrls.dram.rank0.preEnergy        57277935                       # Energy for precharge commands per rank (pJ)
system.mem_ctrls.dram.rank0.readEnergy      164755500                       # Energy for read commands per rank (pJ)
system.mem_ctrls.dram.rank0.writeEnergy      97754940                       # Energy for write commands per rank (pJ)
system.mem_ctrls.dram.rank0.refreshEnergy 5165434560.000001                       # Energy for refresh commands per rank (pJ)
system.mem_ctrls.dram.rank0.actBackEnergy  16419024990                       # Energy for active background per rank (pJ)
system.mem_ctrls.dram.rank0.preBackEnergy  11303317440                       # Energy for precharge background per rank (pJ)
system.mem_ctrls.dram.rank0.actPowerDownEnergy            0                       # Energy for active power-down per rank (pJ)
system.mem_ctrls.dram.rank0.prePowerDownEnergy            0                       # Energy for precharge power-down per rank (pJ)
system.mem_ctrls.dram.rank0.selfRefreshEnergy            0                       # Energy for self refresh per rank (pJ)
system.mem_ctrls.dram.rank0.totalEnergy   33315336525                       # Total energy per rank (pJ)
system.mem_ctrls.dram.rank0.averagePower   509.079117                       # Core power per rank (mW)
system.mem_ctrls.dram.rank0.totalIdleTime            0                       # Total Idle time Per DRAM Rank
system.mem_ctrls.dram.rank0.pwrStateTime::IDLE  29227293500                       # Time in different power states
system.mem_ctrls.dram.rank0.pwrStateTime::REF   2185040000                       # Time in different power states
system.mem_ctrls.dram.rank0.pwrStateTime::SREF            0                       # Time in different power states
system.mem_ctrls.dram.rank0.pwrStateTime::PRE_PDN            0                       # Time in different power states
system.mem_ctrls.dram.rank0.pwrStateTime::ACT  34030022000                       # Time in different power states
system.mem_ctrls.dram.rank0.pwrStateTime::ACT_PDN            0                       # Time in different power states
system.mem_ctrls.dram.rank1.actEnergy       106293180                       # Energy for activate commands per rank (pJ)
system.mem_ctrls.dram.rank1.preEnergy        56496165                       # Energy for precharge commands per rank (pJ)
system.mem_ctrls.dram.rank1.readEnergy      166047840                       # Energy for read commands per rank (pJ)
system.mem_ctrls.dram.rank1.writeEnergy      98162100                       # Energy for write commands per rank (pJ)
system.mem_ctrls.dram.rank1.refreshEnergy 5165434560.000001                       # Energy for refresh commands per rank (pJ)
system.mem_ctrls.dram.rank1.actBackEnergy  16870254090                       # Energy for active background per rank (pJ)
system.mem_ctrls.dram.rank1.preBackEnergy  10923335040                       # Energy for precharge background per rank (pJ)
system.mem_ctrls.dram.rank1.actPowerDownEnergy            0                       # Energy for active power-down per rank (pJ)
system.mem_ctrls.dram.rank1.prePowerDownEnergy            0                       # Energy for precharge power-down per rank (pJ)
system.mem_ctrls.dram.rank1.selfRefreshEnergy            0                       # Energy for self refresh per rank (pJ)
system.mem_ctrls.dram.rank1.totalEnergy   33386022975                       # Total energy per rank (pJ)
system.mem_ctrls.dram.rank1.averagePower   510.159250                       # Core power per rank (mW)
system.mem_ctrls.dram.rank1.totalIdleTime            0                       # Total Idle time Per DRAM Rank
system.mem_ctrls.dram.rank1.pwrStateTime::IDLE  28233926500                       # Time in different power states
system.mem_ctrls.dram.rank1.pwrStateTime::REF   2185040000                       # Time in different power states
system.mem_ctrls.dram.rank1.pwrStateTime::SREF            0                       # Time in different power states
system.mem_ctrls.dram.rank1.pwrStateTime::PRE_PDN            0                       # Time in different power states
system.mem_ctrls.dram.rank1.pwrStateTime::ACT  35023389000                       # Time in different power states
system.mem_ctrls.dram.rank1.pwrStateTime::ACT_PDN            0                       # Time in different power states
system.mem_ctrls.power_state.pwrStateResidencyTicks::UNDEFINED  65442355500                       # Cumulative time (in ticks) in various power states
system.membus.trans_dist::ReadResp               7534                       # Transaction distribution
system.membus.trans_dist::WritebackDirty        37549                       # Transaction distribution
system.membus.trans_dist::CleanEvict              195                       # Transaction distribution
system.membus.trans_dist::ReadExReq             38812                       # Transaction distribution
system.membus.trans_dist::ReadExResp            38812                       # Transaction distribution
system.membus.trans_dist::ReadSharedReq          7534                       # Transaction distribution
system.membus.pkt_count_system.l2.mem_side_port::system.mem_ctrls.port       130436                       # Packet count per connected requestor and responder (bytes)
system.membus.pkt_count::total                 130436                       # Packet count per connected requestor and responder (bytes)
system.membus.pkt_size_system.l2.mem_side_port::system.mem_ctrls.port      5369280                       # Cumulative packet size per connected requestor and responder (bytes)
system.membus.pkt_size::total                 5369280                       # Cumulative packet size per connected requestor and responder (bytes)
system.membus.snoops                                0                       # Total snoops (count)
system.membus.snoopTraffic                          0                       # Total snoop traffic (bytes)
system.membus.snoop_fanout::samples             46346                       # Request fanout histogram
system.membus.snoop_fanout::mean                    0                       # Request fanout histogram
system.membus.snoop_fanout::stdev                   0                       # Request fanout histogram
system.membus.snoop_fanout::underflows              0      0.00%      0.00% # Request fanout histogram
system.membus.snoop_fanout::0                   46346    100.00%    100.00% # Request fanout histogram
system.membus.snoop_fanout::1                       0      0.00%    100.00% # Request fanout histogram
system.membus.snoop_fanout::overflows               0      0.00%    100.00% # Request fanout histogram
system.membus.snoop_fanout::min_value               0                       # Request fanout histogram
system.membus.snoop_fanout::max_value               0                       # Request fanout histogram
system.membus.snoop_fanout::total               46346                       # Request fanout histogram
system.membus.power_state.pwrStateResidencyTicks::UNDEFINED  65442355500                       # Cumulative time (in ticks) in various power states
system.membus.reqLayer0.occupancy           245154000                       # Layer occupancy (ticks)
system.membus.reqLayer0.utilization               0.4                       # Layer utilization (%)
system.membus.respLayer1.occupancy          248266500                       # Layer occupancy (ticks)
system.membus.respLayer1.utilization              0.4                       # Layer utilization (%)
system.tol2bus.trans_dist::ReadResp            692637                       # Transaction distribution
system.tol2bus.trans_dist::WritebackDirty        93987                       # Transaction distribution
system.tol2bus.trans_dist::WritebackClean       668508                       # Transaction distribution
system.tol2bus.trans_dist::CleanEvict            8224                       # Transaction distribution
system.tol2bus.trans_dist::ReadExReq            40807                       # Transaction distribution
system.tol2bus.trans_dist::ReadExResp           40807                       # Transaction distribution
system.tol2bus.trans_dist::ReadCleanReq        668906                       # Transaction distribution
system.tol2bus.trans_dist::ReadSharedReq        23731                       # Transaction distribution
system.tol2bus.pkt_count_system.cpu.icache.mem_side_port::system.l2.cpu_side_port      2006320                       # Packet count per connected requestor and responder (bytes)
system.tol2bus.pkt_count_system.cpu.dcache.mem_side_port::system.l2.cpu_side_port       193102                       # Packet count per connected requestor and responder (bytes)
system.tol2bus.pkt_count::total               2199422                       # Packet count per connected requestor and responder (bytes)
system.tol2bus.pkt_size_system.cpu.icache.mem_side_port::system.l2.cpu_side_port     85594496                       # Cumulative packet size per connected requestor and responder (bytes)
system.tol2bus.pkt_size_system.cpu.dcache.mem_side_port::system.l2.cpu_side_port      7742464                       # Cumulative packet size per connected requestor and responder (bytes)
system.tol2bus.pkt_size::total               93336960                       # Cumulative packet size per connected requestor and responder (bytes)
system.tol2bus.snoops                           38185                       # Total snoops (count)
system.tol2bus.snoopTraffic                   2403136                       # Total snoop traffic (bytes)
system.tol2bus.snoop_fanout::samples           771629                       # Request fanout histogram
system.tol2bus.snoop_fanout::mean            0.000775                       # Request fanout histogram
system.tol2bus.snoop_fanout::stdev           0.028290                       # Request fanout histogram
system.tol2bus.snoop_fanout::underflows             0      0.00%      0.00% # Request fanout histogram
system.tol2bus.snoop_fanout::0                 771041     99.92%     99.92% # Request fanout histogram
system.tol2bus.snoop_fanout::1                    578      0.07%    100.00% # Request fanout histogram
system.tol2bus.snoop_fanout::2                     10      0.00%    100.00% # Request fanout histogram
system.tol2bus.snoop_fanout::overflows              0      0.00%    100.00% # Request fanout histogram
system.tol2bus.snoop_fanout::min_value              0                       # Request fanout histogram
system.tol2bus.snoop_fanout::max_value              2                       # Request fanout histogram
system.tol2bus.snoop_fanout::total             771629                       # Request fanout histogram
system.tol2bus.power_state.pwrStateResidencyTicks::UNDEFINED  65442355500                       # Cumulative time (in ticks) in various power states
system.tol2bus.reqLayer0.occupancy         1457935000                       # Layer occupancy (ticks)
system.tol2bus.reqLayer0.utilization              2.2                       # Layer utilization (%)
system.tol2bus.respLayer0.occupancy        1003359499                       # Layer occupancy (ticks)
system.tol2bus.respLayer0.utilization             1.5                       # Layer utilization (%)
system.tol2bus.respLayer1.occupancy          96809495                       # Layer occupancy (ticks)
system.tol2bus.respLayer1.utilization             0.1                       # Layer utilization (%)
system.voltage_domain.voltage                       1                       # Voltage in Volts

---------- End Simulation Statistics   ----------
